@<TRIPOS>MOLECULE
ligand_hydrophobic1_000
   27    29     0     0     0
SMALL
USER_CHARGES

@<TRIPOS>ATOM
1    C1      -26.6917  -13.1088   28.5802  C.ar  1 <0>        -0.0611
2    C2      -27.0425  -14.4674   28.4092  C.ar  1 <0>        -0.0598
3    C3      -27.5413  -12.0862   28.1060  C.ar  1 <0>        -0.0523
4    C4      -28.2503  -14.8194   27.7706  C.ar  1 <0>        -0.0378
5    C5      -28.7426  -12.4497   27.4693  C.ar  1 <0>         0.0032
6    C6      -29.7799  -11.7072   26.9188  C.2   1 <0>        -0.0159
7    C7      -29.0920  -13.7933   27.3076  C.ar  1 <0>         0.0470
8    C8      -30.7041  -12.6312   26.4325  C.2   1 <0>         0.0343
9    C9      -31.5123   -8.4486   25.9694  C.2   1 <0>         0.3223
10   C10     -29.9472  -10.2444   26.8031  C.3   1 <0>         0.0005
11   C11     -31.9601  -12.2279   25.7737  C.3   1 <0>         0.0374
12   C12     -31.4191   -9.8496   26.4461  C.3   1 <0>         0.1101
13   N1      -30.2786  -13.8849   26.6820  N.2   1 <0>        -0.3567
14   N2      -31.9683  -10.7846   25.4219  N.4   1 <0>        -0.2984
15   O1      -32.4241   -8.0787   25.0390  O.co2 1 <0>        -0.4795
16   O2      -30.8179   -7.4688   26.5933  O.co2 1 <0>        -0.2492
17   H1      -25.8183  -12.8646   29.0526  H     1 <0>         0.0618
18   H2      -26.4184  -15.2011   28.7524  H     1 <0>         0.0618
19   H3      -27.2920  -11.1027   28.2310  H     1 <0>         0.0624
20   H4      -28.5104  -15.8004   27.6473  H     1 <0>         0.0638
21   H5      -29.6676   -9.7854   27.7543  H     1 <0>         0.0334
22   H6      -29.2572   -9.8912   26.0319  H     1 <0>         0.0334
23   H7      -32.0832  -12.8012   24.8532  H     1 <0>         0.0488
24   H8      -32.8013  -12.4489   26.4331  H     1 <0>         0.0488
25   H9      -32.0341   -9.9249   27.3491  H     1 <0>         0.0579
26   H10     -31.4104  -10.6694   24.5734  H     1 <0>         0.1231
27   H11     -32.9343  -10.5207   25.2139  H     1 <0>         0.0000
@<TRIPOS>BOND
     1    1    2 ar
     2    1    3 ar
     3    2    4 ar
     4    3    5 ar
     5    4    7 ar
     6    5    6 1
     7    5    7 ar
     8    6    8 2
     9    6   10 1
    10    7   13 1
    11    8   11 1
    12    8   13 1
    13    9   12 1
    14    9   15 1
    15    9   16 2
    16   10   12 1
    17   11   14 1
    18   12   14 1
    19    1   17 1
    20    2   18 1
    21    3   19 1
    22    4   20 1
    23   10   21 1
    24   10   22 1
    25   11   23 1
    26   11   24 1
    27   12   25 1
    28   14   26 1
    29   14   27 1
@<TRIPOS>PROPERTY_DATA
  Total_Score	| 8.3840
  Crash		| -0.4030
  Polar		| 6.5874

@<TRIPOS>MOLECULE
ligand_hydrophobic1_001
   27    29     0     0     0
SMALL
USER_CHARGES

@<TRIPOS>ATOM
1    C1      -32.1870  -12.3607   25.8927  C.ar  1 <0>        -0.0611
2    C2      -32.7118  -11.0594   26.0567  C.ar  1 <0>        -0.0598
3    C3      -30.8487  -12.6452   26.2313  C.ar  1 <0>        -0.0523
4    C4      -31.8969  -10.0224   26.5578  C.ar  1 <0>        -0.0378
5    C5      -30.0440  -11.6008   26.7278  C.ar  1 <0>         0.0032
6    C6      -28.7234  -11.5452   27.1461  C.2   1 <0>        -0.0159
7    C7      -30.5622  -10.3130   26.8848  C.ar  1 <0>         0.0470
8    C8      -28.4860  -10.2216   27.5166  C.2   1 <0>         0.0343
9    C9      -25.2664  -13.0367   27.7780  C.2   1 <0>         0.3223
10   C10     -27.6986  -12.6085   27.1955  C.3   1 <0>         0.0005
11   C11     -27.1744   -9.7570   28.0046  C.3   1 <0>         0.0374
12   C12     -26.4440  -12.1725   28.0234  C.3   1 <0>         0.1101
13   N1      -29.6124   -9.4966   27.3768  N.2   1 <0>        -0.3567
14   N2      -26.0882  -10.7453   27.7743  N.4   1 <0>        -0.2984
15   O1      -24.0732  -12.7102   28.3300  O.co2 1 <0>        -0.4795
16   O2      -25.3976  -14.3055   27.3264  O.co2 1 <0>        -0.2492
17   H1      -32.7819  -13.1060   25.5286  H     1 <0>         0.0618
18   H2      -33.6869  -10.8706   25.8165  H     1 <0>         0.0618
19   H3      -30.4665  -13.5865   26.1195  H     1 <0>         0.0624
20   H4      -32.2703   -9.0790   26.6747  H     1 <0>         0.0638
21   H5      -28.1258  -13.5033   27.6546  H     1 <0>         0.0334
22   H6      -27.4223  -12.8551   26.1679  H     1 <0>         0.0334
23   H7      -26.9082   -8.8384   27.4816  H     1 <0>         0.0488
24   H8      -27.2524   -9.5381   29.0690  H     1 <0>         0.0488
25   H9      -26.6837  -12.2682   29.0875  H     1 <0>         0.0579
26   H10     -25.7747  -10.6542   26.8080  H     1 <0>         0.1231
27   H11     -25.3027  -10.4971   28.3792  H     1 <0>         0.0000
@<TRIPOS>BOND
     1    1    2 ar
     2    1    3 ar
     3    2    4 ar
     4    3    5 ar
     5    4    7 ar
     6    5    6 1
     7    5    7 ar
     8    6    8 2
     9    6   10 1
    10    7   13 1
    11    8   11 1
    12    8   13 1
    13    9   12 1
    14    9   15 1
    15    9   16 2
    16   10   12 1
    17   11   14 1
    18   12   14 1
    19    1   17 1
    20    2   18 1
    21    3   19 1
    22    4   20 1
    23   10   21 1
    24   10   22 1
    25   11   23 1
    26   11   24 1
    27   12   25 1
    28   14   26 1
    29   14   27 1
@<TRIPOS>PROPERTY_DATA
  Total_Score	| 6.1023
  Crash		| -0.8139
  Polar		| 2.7269

@<TRIPOS>MOLECULE
ligand_hydrophobic1_002
   27    29     0     0     0
SMALL
USER_CHARGES

@<TRIPOS>ATOM
1    C1      -32.0927  -12.2779   25.9458  C.ar  1 <0>        -0.0611
2    C2      -32.6013  -10.9745   26.1517  C.ar  1 <0>        -0.0598
3    C3      -30.7567  -12.5926   26.2908  C.ar  1 <0>        -0.0523
4    C4      -31.7731   -9.9747   26.6950  C.ar  1 <0>        -0.0378
5    C5      -29.9428  -11.5831   26.8195  C.ar  1 <0>         0.0032
6    C6      -28.6111  -11.5591   27.2301  C.2   1 <0>        -0.0159
7    C7      -30.4381  -10.2929   27.0174  C.ar  1 <0>         0.0470
8    C8      -28.3536  -10.2541   27.6200  C.2   1 <0>         0.0343
9    C9      -25.1320  -13.0763   27.6903  C.2   1 <0>         0.3223
10   C10     -27.6076  -12.6391   27.2451  C.3   1 <0>         0.0005
11   C11     -27.0251   -9.8100   28.0950  C.3   1 <0>         0.0374
12   C12     -26.3055  -12.2326   28.0154  C.3   1 <0>         0.1101
13   N1      -29.4682   -9.5064   27.5052  N.2   1 <0>        -0.3567
14   N2      -25.9550  -10.8025   27.7826  N.4   1 <0>        -0.2984
15   O1      -25.2510  -14.2993   27.1232  O.co2 1 <0>        -0.4795
16   O2      -23.9339  -12.7854   28.2567  O.co2 1 <0>        -0.2492
17   H1      -32.6939  -12.9967   25.5495  H     1 <0>         0.0618
18   H2      -33.5751  -10.7619   25.9097  H     1 <0>         0.0618
19   H3      -30.3926  -13.5362   26.1422  H     1 <0>         0.0624
20   H4      -32.1255   -9.0278   26.8345  H     1 <0>         0.0638
21   H5      -28.0370  -13.5282   27.7286  H     1 <0>         0.0334
22   H6      -27.3846  -12.8931   26.2070  H     1 <0>         0.0334
23   H7      -26.7745   -8.8751   27.6029  H     1 <0>         0.0488
24   H8      -27.0639   -9.6407   29.1721  H     1 <0>         0.0488
25   H9      -26.4917  -12.3490   29.0860  H     1 <0>         0.0579
26   H10     -25.6939  -10.6809   26.8080  H     1 <0>         0.1231
27   H11     -25.1541  -10.5585   28.3617  H     1 <0>         0.0000
@<TRIPOS>BOND
     1    1    2 ar
     2    1    3 ar
     3    2    4 ar
     4    3    5 ar
     5    4    7 ar
     6    5    6 1
     7    5    7 ar
     8    6    8 2
     9    6   10 1
    10    7   13 1
    11    8   11 1
    12    8   13 1
    13    9   12 1
    14    9   15 1
    15    9   16 2
    16   10   12 1
    17   11   14 1
    18   12   14 1
    19    1   17 1
    20    2   18 1
    21    3   19 1
    22    4   20 1
    23   10   21 1
    24   10   22 1
    25   11   23 1
    26   11   24 1
    27   12   25 1
    28   14   26 1
    29   14   27 1
@<TRIPOS>PROPERTY_DATA
  Total_Score	| 6.0847
  Crash		| -0.7828
  Polar		| 2.5765

@<TRIPOS>MOLECULE
ligand_hydrophobic4_000
   36    38     0     0     0
SMALL
USER_CHARGES

@<TRIPOS>ATOM
1    C1      -28.3142  -15.8499   27.4522  C.ar  1 <0>        -0.0566
2    C2      -29.2972  -15.8691   26.4399  C.ar  1 <0>        -0.0375
3    C3      -28.6357  -13.4454   27.7610  C.ar  1 <0>        -0.0491
4    C4      -29.6126  -13.4767   26.7512  C.ar  1 <0>         0.0035
5    C5      -30.4046  -12.4839   26.1931  C.2   1 <0>        -0.0159
6    C6      -27.9768  -14.6460   28.1250  C.ar  1 <0>        -0.0467
7    C7      -29.9364  -14.6653   26.0947  C.ar  1 <0>         0.0470
8    C8      -31.2006  -13.1167   25.2393  C.2   1 <0>         0.0343
9    C9      -31.7385   -8.9052   25.8929  C.2   1 <0>         0.3223
10   C10     -30.4768  -11.0406   26.5069  C.3   1 <0>         0.0005
11   C11     -32.2219  -12.3926   24.4598  C.3   1 <0>         0.0374
12   C12     -31.3162  -10.2530   25.4465  C.3   1 <0>         0.1101
13   C13     -24.6180  -13.3869   29.2049  C.3   1 <0>        -0.0650
14   C14     -26.9073  -14.6260   29.1607  C.3   1 <0>        -0.0279
15   C15     -25.4758  -14.4941   28.5500  C.3   1 <0>        -0.0519
16   N1      -30.8802  -14.4263   25.1657  N.2   1 <0>        -0.3567
17   N2      -32.5074  -11.0421   25.0177  N.4   1 <0>        -0.2984
18   O1      -32.3780   -8.0847   25.0279  O.co2 1 <0>        -0.4795
19   O2      -31.2667   -8.3518   27.0343  O.co2 1 <0>        -0.2492
20   H1      -27.8383  -16.7221   27.6947  H     1 <0>         0.0621
21   H2      -29.5389  -16.7418   25.9658  H     1 <0>         0.0638
22   H3      -28.4035  -12.5582   28.2134  H     1 <0>         0.0627
23   H4      -30.9151  -10.9400   27.5022  H     1 <0>         0.0334
24   H5      -29.4634  -10.6303   26.5332  H     1 <0>         0.0334
25   H6      -31.8903  -12.3056   23.4244  H     1 <0>         0.0488
26   H7      -33.1526  -12.9608   24.4725  H     1 <0>         0.0488
27   H8      -30.6819  -10.0984   24.5705  H     1 <0>         0.0579
28   H9      -25.0918  -12.4121   29.0708  H     1 <0>         0.0230
29   H10     -24.4958  -13.5798   30.2724  H     1 <0>         0.0230
30   H11     -23.6311  -13.3602   28.7393  H     1 <0>         0.0230
31   H12     -27.1019  -13.8095   29.8630  H     1 <0>         0.0313
32   H13     -26.9647  -15.5429   29.7552  H     1 <0>         0.0313
33   H14     -24.9498  -15.4467   28.6620  H     1 <0>         0.0266
34   H15     -25.5231  -14.2799   27.4773  H     1 <0>         0.0266
35   H16     -33.0210  -10.5222   24.3017  H     1 <0>         0.1231
36   H17     -33.1171  -11.1577   25.8308  H     1 <0>         0.0000
@<TRIPOS>BOND
     1    1    2 ar
     2    1    6 ar
     3    2    7 ar
     4    3    4 ar
     5    3    6 ar
     6    4    5 1
     7    4    7 ar
     8    5    8 2
     9    5   10 1
    10    6   14 1
    11    7   16 1
    12    8   11 1
    13    8   16 1
    14    9   12 1
    15    9   18 1
    16    9   19 2
    17   10   12 1
    18   11   17 1
    19   12   17 1
    20   13   15 1
    21   14   15 1
    22    1   20 1
    23    2   21 1
    24    3   22 1
    25   10   23 1
    26   10   24 1
    27   11   25 1
    28   11   26 1
    29   12   27 1
    30   13   28 1
    31   13   29 1
    32   13   30 1
    33   14   31 1
    34   14   32 1
    35   15   33 1
    36   15   34 1
    37   17   35 1
    38   17   36 1
@<TRIPOS>PROPERTY_DATA
  Total_Score	| 7.8286
  Crash		| -1.1562
  Polar		| 3.9672

@<TRIPOS>MOLECULE
ligand_hydrophobic4_001
   36    38     0     0     0
SMALL
USER_CHARGES

@<TRIPOS>ATOM
1    C1      -28.1981  -15.7160   27.6823  C.ar  1 <0>        -0.0566
2    C2      -29.1658  -15.7692   26.6587  C.ar  1 <0>        -0.0375
3    C3      -28.6881  -13.3576   28.0789  C.ar  1 <0>        -0.0491
4    C4      -29.6259  -13.4077   27.0259  C.ar  1 <0>         0.0035
5    C5      -30.4221  -12.4438   26.4213  C.2   1 <0>        -0.0159
6    C6      -27.9681  -14.5279   28.4308  C.ar  1 <0>        -0.0467
7    C7      -29.8610  -14.5961   26.3307  C.ar  1 <0>         0.0470
8    C8      -31.1373  -13.1024   25.4180  C.2   1 <0>         0.0343
9    C9      -31.6486   -8.8602   25.8150  C.2   1 <0>         0.3223
10   C10     -30.5252  -10.9886   26.6750  C.3   1 <0>         0.0005
11   C11     -32.1084  -12.4123   24.5506  C.3   1 <0>         0.0374
12   C12     -31.2331  -10.2440   25.4937  C.3   1 <0>         0.1101
13   C13     -25.3868  -16.2199   30.6559  C.3   1 <0>        -0.0650
14   C14     -26.8995  -14.4762   29.4692  C.3   1 <0>        -0.0279
15   C15     -26.8286  -15.6904   30.4582  C.3   1 <0>        -0.0519
16   N1      -30.7689  -14.3964   25.3554  N.2   1 <0>        -0.3567
17   N2      -32.4028  -11.0308   25.0116  N.4   1 <0>        -0.2984
18   O1      -32.3575   -8.1480   24.9104  O.co2 1 <0>        -0.4795
19   O2      -31.0939   -8.1799   26.8443  O.co2 1 <0>        -0.2492
20   H1      -27.6535  -16.5608   27.8635  H     1 <0>         0.0621
21   H2      -29.3350  -16.6400   26.1469  H     1 <0>         0.0638
22   H3      -28.5139  -12.4650   28.5467  H     1 <0>         0.0627
23   H4      -31.0794  -10.8480   27.6072  H     1 <0>         0.0334
24   H5      -29.5177  -10.5797   26.8078  H     1 <0>         0.0334
25   H6      -31.7172  -12.3836   23.5332  H     1 <0>         0.0488
26   H7      -33.0451  -12.9709   24.5382  H     1 <0>         0.0488
27   H8      -30.5148  -10.1664   24.6735  H     1 <0>         0.0579
28   H9      -24.9383  -16.4697   29.6874  H     1 <0>         0.0230
29   H10     -24.7711  -15.4633   31.1534  H     1 <0>         0.0230
30   H11     -25.3957  -17.1265   31.2692  H     1 <0>         0.0230
31   H12     -25.9597  -14.3646   28.9259  H     1 <0>         0.0313
32   H13     -27.0040  -13.5727   30.0762  H     1 <0>         0.0313
33   H14     -27.2225  -15.3876   31.4337  H     1 <0>         0.0266
34   H15     -27.4311  -16.5419   30.1269  H     1 <0>         0.0266
35   H16     -32.8347  -10.5402   24.2269  H     1 <0>         0.1231
36   H17     -33.0819  -11.0846   25.7741  H     1 <0>         0.0000
@<TRIPOS>BOND
     1    1    2 ar
     2    1    6 ar
     3    2    7 ar
     4    3    4 ar
     5    3    6 ar
     6    4    5 1
     7    4    7 ar
     8    5    8 2
     9    5   10 1
    10    6   14 1
    11    7   16 1
    12    8   11 1
    13    8   16 1
    14    9   12 1
    15    9   18 1
    16    9   19 2
    17   10   12 1
    18   11   17 1
    19   12   17 1
    20   13   15 1
    21   14   15 1
    22    1   20 1
    23    2   21 1
    24    3   22 1
    25   10   23 1
    26   10   24 1
    27   11   25 1
    28   11   26 1
    29   12   27 1
    30   13   28 1
    31   13   29 1
    32   13   30 1
    33   14   31 1
    34   14   32 1
    35   15   33 1
    36   15   34 1
    37   17   35 1
    38   17   36 1
@<TRIPOS>PROPERTY_DATA
  Total_Score	| 7.8139
  Crash		| -1.2015
  Polar		| 4.0921

@<TRIPOS>MOLECULE
ligand_hydrophobic4_002
   36    38     0     0     0
SMALL
USER_CHARGES

@<TRIPOS>ATOM
1    C1      -28.3817  -15.7001   27.9606  C.ar  1 <0>        -0.0566
2    C2      -29.2551  -15.7610   26.8522  C.ar  1 <0>        -0.0375
3    C3      -28.8357  -13.3152   28.2278  C.ar  1 <0>        -0.0491
4    C4      -29.6976  -13.3857   27.1201  C.ar  1 <0>         0.0035
5    C5      -30.4432  -12.4161   26.4649  C.2   1 <0>        -0.0159
6    C6      -28.1442  -14.4770   28.6461  C.ar  1 <0>        -0.0467
7    C7      -29.9010  -14.5842   26.4345  C.ar  1 <0>         0.0470
8    C8      -31.0995  -13.0752   25.4273  C.2   1 <0>         0.0343
9    C9      -31.6232   -8.8358   25.8253  C.2   1 <0>         0.3223
10   C10     -30.5536  -10.9635   26.7300  C.3   1 <0>         0.0005
11   C11     -32.0172  -12.3752   24.5070  C.3   1 <0>         0.0374
12   C12     -31.1688  -10.2094   25.5068  C.3   1 <0>         0.1101
13   C13     -24.9937  -13.4304   28.7276  C.3   1 <0>        -0.0650
14   C14     -27.1751  -14.4076   29.7764  C.3   1 <0>        -0.0279
15   C15     -25.7074  -14.6613   29.3370  C.3   1 <0>        -0.0519
16   N1      -30.7525  -14.3798   25.4110  N.2   1 <0>        -0.3567
17   N2      -32.3059  -10.9795   24.9280  N.4   1 <0>        -0.2984
18   O1      -32.3747   -8.1449   24.9370  O.co2 1 <0>        -0.4795
19   O2      -31.0828   -8.1576   26.8667  O.co2 1 <0>        -0.2492
20   H1      -27.8929  -16.5530   28.2494  H     1 <0>         0.0621
21   H2      -29.4041  -16.6406   26.3542  H     1 <0>         0.0638
22   H3      -28.7085  -12.4252   28.7133  H     1 <0>         0.0627
23   H4      -31.1646  -10.8208   27.6260  H     1 <0>         0.0334
24   H5      -29.5527  -10.5715   26.9306  H     1 <0>         0.0334
25   H6      -31.5847  -12.3728   23.5070  H     1 <0>         0.0488
26   H7      -32.9640  -12.9145   24.4700  H     1 <0>         0.0488
27   H8      -30.3946  -10.1155   24.7382  H     1 <0>         0.0579
28   H9      -25.4776  -13.1198   27.7980  H     1 <0>         0.0230
29   H10     -25.0040  -12.5942   29.4332  H     1 <0>         0.0230
30   H11     -23.9534  -13.6856   28.5084  H     1 <0>         0.0230
31   H12     -27.2311  -13.4304   30.2668  H     1 <0>         0.0313
32   H13     -27.4521  -15.1523   30.5308  H     1 <0>         0.0313
33   H14     -25.1416  -14.9714   30.2184  H     1 <0>         0.0266
34   H15     -25.6773  -15.4797   28.6128  H     1 <0>         0.0266
35   H16     -32.6451  -10.4789   24.1048  H     1 <0>         0.1231
36   H17     -33.0548  -11.0007   25.6234  H     1 <0>         0.0000
@<TRIPOS>BOND
     1    1    2 ar
     2    1    6 ar
     3    2    7 ar
     4    3    4 ar
     5    3    6 ar
     6    4    5 1
     7    4    7 ar
     8    5    8 2
     9    5   10 1
    10    6   14 1
    11    7   16 1
    12    8   11 1
    13    8   16 1
    14    9   12 1
    15    9   18 1
    16    9   19 2
    17   10   12 1
    18   11   17 1
    19   12   17 1
    20   13   15 1
    21   14   15 1
    22    1   20 1
    23    2   21 1
    24    3   22 1
    25   10   23 1
    26   10   24 1
    27   11   25 1
    28   11   26 1
    29   12   27 1
    30   13   28 1
    31   13   29 1
    32   13   30 1
    33   14   31 1
    34   14   32 1
    35   15   33 1
    36   15   34 1
    37   17   35 1
    38   17   36 1
@<TRIPOS>PROPERTY_DATA
  Total_Score	| 7.7338
  Crash		| -1.1428
  Polar		| 4.0626

@<TRIPOS>MOLECULE
ligand_negative8_000
   28    30     0     0     0
SMALL
USER_CHARGES

@<TRIPOS>ATOM
1    C1      -32.1802  -10.6706   25.5984  C.ar  1 <0>         0.0176
2    C2      -31.9930  -12.0587   25.7750  C.ar  1 <0>        -0.0314
3    C3      -30.0180  -10.2214   26.6409  C.ar  1 <0>         0.0250
4    C4      -29.8373  -11.6066   26.7996  C.ar  1 <0>         0.0096
5    C5      -31.2036   -9.7298   26.0317  C.ar  1 <0>         0.2738
6    C6      -28.8479  -12.3693   27.3362  C.2   1 <0>        -0.0156
7    C7      -30.8059  -12.5070   26.3735  C.ar  1 <0>         0.0474
8    C8      -29.2398  -13.6478   27.1916  C.cat 1 <0>         0.0343
9    C9      -25.4760  -12.8534   28.9973  C.2   1 <0>         0.3223
10   C10     -27.5931  -11.9500   27.9280  C.3   1 <0>         0.0005
11   C11     -28.4611  -14.7772   27.6665  C.3   1 <0>         0.0374
12   C12     -26.9119  -13.1074   28.7313  C.3   1 <0>         0.1101
13   N1      -30.4061  -13.7198   26.6405  N.2   1 <0>        -0.3567
14   N2      -27.0677  -14.4002   28.0200  N.3   1 <0>        -0.2984
15   N3      -31.4052   -8.3908   25.8534  N.pl3 1 <0>         0.0796
16   O1      -24.8418  -13.5236   29.9894  O.co2 1 <0>        -0.4795
17   O2      -32.3992   -7.9241   25.1487  O.3   1 <0>        -0.5760
18   O3      -24.7110  -12.1097   28.1580  O.co2 1 <0>        -0.2492
19   O4      -30.6765   -7.5630   26.3368  O.2   1 <0>         0.0414
20   H1      -33.0519  -10.3544   25.1691  H     1 <0>         0.0686
21   H2      -32.7059  -12.7222   25.4687  H     1 <0>         0.0640
22   H3      -29.2784   -9.5835   26.9510  H     1 <0>         0.0692
23   H4      -26.9504  -11.6088   27.1094  H     1 <0>         0.0334
24   H5      -27.7605  -11.1065   28.6024  H     1 <0>         0.0334
25   H6      -28.9504  -15.2030   28.5463  H     1 <0>         0.0488
26   H7      -28.4168  -15.5448   26.8890  H     1 <0>         0.0488
27   H8      -27.4157  -13.1966   29.6962  H     1 <0>         0.0579
28   H9      -26.6295  -15.1582   28.5493  H     1 <0>         0.1231
@<TRIPOS>BOND
     1    1    2 ar
     2    1    5 ar
     3    2    7 ar
     4    3    4 ar
     5    3    5 ar
     6    4    6 2
     7    4    7 ar
     8    5   15 1
     9    6    8 1
    10    6   10 1
    11    7   13 2
    12    8   11 1
    13    8   13 1
    14    9   12 1
    15    9   16 1
    16    9   18 2
    17   10   12 1
    18   11   14 1
    19   12   14 1
    20   15   17 1
    21   15   19 2
    22    1   20 1
    23    2   21 1
    24    3   22 1
    25   10   23 1
    26   10   24 1
    27   11   25 1
    28   11   26 1
    29   12   27 1
    30   14   28 1
@<TRIPOS>PROPERTY_DATA
  Total_Score	| 7.5581
  Crash		| -0.3901
  Polar		| 5.4716

@<TRIPOS>MOLECULE
ligand_negative8_001
   28    30     0     0     0
SMALL
USER_CHARGES

@<TRIPOS>ATOM
1    C1      -27.0902  -14.8114   27.5366  C.ar  1 <0>         0.0176
2    C2      -28.4495  -15.0564   27.2559  C.ar  1 <0>        -0.0314
3    C3      -27.4277  -12.4139   27.2255  C.ar  1 <0>         0.0250
4    C4      -28.7792  -12.6710   26.9201  C.ar  1 <0>         0.0096
5    C5      -26.5456  -13.4959   27.5035  C.ar  1 <0>         0.2738
6    C6      -29.8323  -11.8896   26.5558  C.2   1 <0>        -0.0156
7    C7      -29.2743  -13.9705   26.9301  C.ar  1 <0>         0.0474
8    C8      -30.8840  -12.7201   26.3898  C.cat 1 <0>         0.0343
9    C9      -31.4971   -8.5422   25.7601  C.2   1 <0>         0.3223
10   C10     -29.9113  -10.4416   26.4329  C.3   1 <0>         0.0005
11   C11     -32.2109  -12.2650   26.0118  C.3   1 <0>         0.0374
12   C12     -31.2068   -9.9894   25.6780  C.3   1 <0>         0.1101
13   N1      -30.5383  -13.9476   26.5967  N.2   1 <0>        -0.3567
14   N2      -32.3655  -10.7900   26.1556  N.3   1 <0>        -0.2984
15   N3      -25.2110  -13.2912   27.7047  N.pl3 1 <0>         0.0796
16   O1      -32.4649   -8.0120   24.9784  O.co2 1 <0>        -0.4795
17   O2      -24.3609  -14.2768   27.8283  O.3   1 <0>        -0.5760
18   O3      -30.8031   -7.7182   26.5778  O.co2 1 <0>        -0.2492
19   O4      -24.7203  -12.1924   27.7493  O.2   1 <0>         0.0414
20   H1      -26.4952  -15.6135   27.7573  H     1 <0>         0.0686
21   H2      -28.8243  -16.0071   27.2730  H     1 <0>         0.0640
22   H3      -27.0828  -11.4531   27.1900  H     1 <0>         0.0692
23   H4      -29.8840  -10.0168   27.4402  H     1 <0>         0.0334
24   H5      -29.0419  -10.0801   25.8815  H     1 <0>         0.0334
25   H6      -32.3979  -12.5537   24.9759  H     1 <0>         0.0488
26   H7      -32.9594  -12.7447   26.6453  H     1 <0>         0.0488
27   H8      -31.0653  -10.2124   24.6162  H     1 <0>         0.0579
28   H9      -33.2332  -10.4863   25.7037  H     1 <0>         0.1231
@<TRIPOS>BOND
     1    1    2 ar
     2    1    5 ar
     3    2    7 ar
     4    3    4 ar
     5    3    5 ar
     6    4    6 2
     7    4    7 ar
     8    5   15 1
     9    6    8 1
    10    6   10 1
    11    7   13 2
    12    8   11 1
    13    8   13 1
    14    9   12 1
    15    9   16 1
    16    9   18 2
    17   10   12 1
    18   11   14 1
    19   12   14 1
    20   15   17 1
    21   15   19 2
    22    1   20 1
    23    2   21 1
    24    3   22 1
    25   10   23 1
    26   10   24 1
    27   11   25 1
    28   11   26 1
    29   12   27 1
    30   14   28 1
@<TRIPOS>PROPERTY_DATA
  Total_Score	| 7.4870
  Crash		| -1.2752
  Polar		| 6.9304

@<TRIPOS>MOLECULE
ligand_negative8_002
   28    30     0     0     0
SMALL
USER_CHARGES

@<TRIPOS>ATOM
1    C1      -27.0747  -14.8052   27.5211  C.ar  1 <0>         0.0176
2    C2      -28.4345  -15.0606   27.2490  C.ar  1 <0>        -0.0314
3    C3      -27.4276  -12.4141   27.1982  C.ar  1 <0>         0.0250
4    C4      -28.7762  -12.6813   26.8929  C.ar  1 <0>         0.0096
5    C5      -26.5395  -13.4873   27.4921  C.ar  1 <0>         0.2738
6    C6      -29.8319  -11.9003   26.5305  C.2   1 <0>        -0.0156
7    C7      -29.2700  -13.9814   26.9183  C.ar  1 <0>         0.0474
8    C8      -30.8860  -12.7297   26.3774  C.cat 1 <0>         0.0343
9    C9      -31.4967   -8.5502   25.7496  C.2   1 <0>         0.3223
10   C10     -29.9006  -10.4533   26.4013  C.3   1 <0>         0.0005
11   C11     -32.2162  -12.2703   26.0025  C.3   1 <0>         0.0374
12   C12     -31.1962   -9.9951   25.6561  C.3   1 <0>         0.1101
13   N1      -30.5378  -13.9570   26.5966  N.2   1 <0>        -0.3567
14   N2      -32.3636  -10.7921   26.1138  N.3   1 <0>        -0.2984
15   N3      -25.2080  -13.2762   27.7113  N.pl3 1 <0>         0.0796
16   O1      -30.8333   -7.7282   26.5939  O.co2 1 <0>        -0.4795
17   O2      -24.3598  -14.2584   27.8754  O.3   1 <0>        -0.5760
18   O3      -32.4669   -8.0224   24.9688  O.co2 1 <0>        -0.2492
19   O4      -24.7182  -12.1769   27.7356  O.2   1 <0>         0.0414
20   H1      -26.4694  -15.6035   27.7256  H     1 <0>         0.0686
21   H2      -28.7983  -16.0161   27.2717  H     1 <0>         0.0640
22   H3      -27.0933  -11.4489   27.1679  H     1 <0>         0.0692
23   H4      -29.8556  -10.0270   27.4071  H     1 <0>         0.0334
24   H5      -29.0324  -10.1032   25.8380  H     1 <0>         0.0334
25   H6      -32.4315  -12.5848   24.9770  H     1 <0>         0.0488
26   H7      -32.9583  -12.7290   26.6600  H     1 <0>         0.0488
27   H8      -31.0503  -10.2066   24.5959  H     1 <0>         0.0579
28   H9      -33.2150  -10.4901   25.6306  H     1 <0>         0.1231
@<TRIPOS>BOND
     1    1    2 ar
     2    1    5 ar
     3    2    7 ar
     4    3    4 ar
     5    3    5 ar
     6    4    6 2
     7    4    7 ar
     8    5   15 1
     9    6    8 1
    10    6   10 1
    11    7   13 2
    12    8   11 1
    13    8   13 1
    14    9   12 1
    15    9   16 1
    16    9   18 2
    17   10   12 1
    18   11   14 1
    19   12   14 1
    20   15   17 1
    21   15   19 2
    22    1   20 1
    23    2   21 1
    24    3   22 1
    25   10   23 1
    26   10   24 1
    27   11   25 1
    28   11   26 1
    29   12   27 1
    30   14   28 1
@<TRIPOS>PROPERTY_DATA
  Total_Score	| 7.2569
  Crash		| -1.3704
  Polar		| 6.8430

@<TRIPOS>MOLECULE
ligand_hydrophobic9_000
   34    36     0     0     0
SMALL
USER_CHARGES

@<TRIPOS>ATOM
1    C1      -27.3742  -14.6295   28.4068  C.ar  1 <0>        -0.0563
2    C2      -28.5909  -14.9360   27.7630  C.ar  1 <0>        -0.0375
3    C3      -27.7710  -12.2336   28.0896  C.ar  1 <0>        -0.0488
4    C4      -28.9770  -12.5524   27.4430  C.ar  1 <0>         0.0035
5    C5      -29.9697  -11.7682   26.8755  C.2   1 <0>        -0.0159
6    C6      -26.9475  -13.2833   28.5678  C.ar  1 <0>        -0.0430
7    C7      -29.3826  -13.8797   27.2832  C.ar  1 <0>         0.0470
8    C8      -30.9283  -12.6511   26.3791  C.2   1 <0>         0.0343
9    C9      -24.5639  -13.4194   26.8504  C.2   1 <0>        -0.1023
10   C10     -24.4780  -13.2216   28.1752  C.2   1 <0>        -0.0868
11   C11     -31.5316   -8.4409   25.9197  C.2   1 <0>         0.3223
12   C12     -30.0669  -10.3008   26.7536  C.3   1 <0>         0.0005
13   C13     -32.1627  -12.1939   25.7168  C.3   1 <0>         0.0374
14   C14     -31.5170   -9.8427   26.3922  C.3   1 <0>         0.1101
15   C15     -25.5874  -12.9981   29.0980  C.3   1 <0>        -0.0097
16   N1      -30.5572  -13.9220   26.6383  N.2   1 <0>        -0.3567
17   N2      -32.1132  -10.7501   25.3694  N.4   1 <0>        -0.2984
18   O1      -30.8089   -7.4922   26.5569  O.co2 1 <0>        -0.4795
19   O2      -32.3915   -8.0432   24.9536  O.co2 1 <0>        -0.2492
20   H1      -26.7821  -15.3974   28.7298  H     1 <0>         0.0621
21   H2      -28.8849  -15.9067   27.6362  H     1 <0>         0.0638
22   H3      -27.4806  -11.2567   28.1652  H     1 <0>         0.0627
23   H4      -23.7457  -13.5484   26.3034  H     1 <0>         0.0532
24   H5      -25.4375  -13.4368   26.3862  H     1 <0>         0.0532
25   H6      -23.5646  -13.1890   28.5653  H     1 <0>         0.0570
26   H7      -29.7728   -9.8471   27.7039  H     1 <0>         0.0334
27   H8      -29.3564   -9.9879   25.9828  H     1 <0>         0.0334
28   H9      -32.3087  -12.7612   24.7941  H     1 <0>         0.0488
29   H10     -33.0112  -12.3869   26.3773  H     1 <0>         0.0488
30   H11     -32.1355   -9.8895   27.2936  H     1 <0>         0.0579
31   H12     -25.5241  -11.9615   29.4404  H     1 <0>         0.0355
32   H13     -25.4286  -13.6216   29.9802  H     1 <0>         0.0355
33   H14     -31.5582  -10.6543   24.5158  H     1 <0>         0.1231
34   H15     -33.0694  -10.4435   25.1699  H     1 <0>         0.0000
@<TRIPOS>BOND
     1    1    2 ar
     2    1    6 ar
     3    2    7 ar
     4    3    4 ar
     5    3    6 ar
     6    4    5 1
     7    4    7 ar
     8    5    8 2
     9    5   12 1
    10    6   15 1
    11    7   16 1
    12    8   13 1
    13    8   16 1
    14    9   10 2
    15   10   15 1
    16   11   14 1
    17   11   18 1
    18   11   19 2
    19   12   14 1
    20   13   17 1
    21   14   17 1
    22    1   20 1
    23    2   21 1
    24    3   22 1
    25    9   23 1
    26    9   24 1
    27   10   25 1
    28   12   26 1
    29   12   27 1
    30   13   28 1
    31   13   29 1
    32   14   30 1
    33   15   31 1
    34   15   32 1
    35   17   33 1
    36   17   34 1
@<TRIPOS>PROPERTY_DATA
  Total_Score	| 10.1234
  Crash		| -0.8198
  Polar		| 6.6556

@<TRIPOS>MOLECULE
ligand_hydrophobic9_001
   34    36     0     0     0
SMALL
USER_CHARGES

@<TRIPOS>ATOM
1    C1      -27.2674  -14.6437   28.4054  C.ar  1 <0>        -0.0563
2    C2      -28.4711  -14.9593   27.7380  C.ar  1 <0>        -0.0375
3    C3      -27.7463  -12.2545   28.1989  C.ar  1 <0>        -0.0488
4    C4      -28.9390  -12.5823   27.5315  C.ar  1 <0>         0.0035
5    C5      -29.9402  -11.7960   26.9813  C.2   1 <0>        -0.0159
6    C6      -26.8911  -13.2931   28.6405  C.ar  1 <0>        -0.0430
7    C7      -29.2914  -13.9102   27.2964  C.ar  1 <0>         0.0470
8    C8      -30.8620  -12.6812   26.4269  C.2   1 <0>         0.0343
9    C9      -24.5849  -13.2199   27.0462  C.2   1 <0>        -0.1023
10   C10     -24.4706  -13.2350   28.3813  C.2   1 <0>        -0.0868
11   C11     -31.4705   -8.4734   25.9233  C.2   1 <0>         0.3223
12   C12     -30.0413  -10.3250   26.8915  C.3   1 <0>         0.0005
13   C13     -32.0834  -12.2227   25.7419  C.3   1 <0>         0.0374
14   C14     -31.4686   -9.8599   26.4523  C.3   1 <0>         0.1101
15   C15     -25.5841  -12.9672   29.2761  C.3   1 <0>        -0.0097
16   N1      -30.4451  -13.9499   26.6052  N.2   1 <0>        -0.3567
17   N2      -32.0494  -10.7723   25.4272  N.4   1 <0>        -0.2984
18   O1      -32.3985   -8.0875   25.0181  O.co2 1 <0>        -0.4795
19   O2      -30.8156   -7.4902   26.5838  O.co2 1 <0>        -0.2492
20   H1      -26.6581  -15.4069   28.7115  H     1 <0>         0.0621
21   H2      -28.7321  -15.9333   27.5691  H     1 <0>         0.0638
22   H3      -27.4995  -11.2715   28.3361  H     1 <0>         0.0627
23   H4      -23.7958  -13.3880   26.4721  H     1 <0>         0.0532
24   H5      -25.4564  -13.0363   26.6116  H     1 <0>         0.0532
25   H6      -23.5750  -13.4181   28.7742  H     1 <0>         0.0570
26   H7      -29.8019   -9.8919   27.8672  H     1 <0>         0.0334
27   H8      -29.2853   -9.9934   26.1730  H     1 <0>         0.0334
28   H9      -32.1947  -12.7657   24.8024  H     1 <0>         0.0488
29   H10     -32.9477  -12.4339   26.3722  H     1 <0>         0.0488
30   H11     -32.1188   -9.8806   27.3300  H     1 <0>         0.0579
31   H12     -25.5452  -11.9169   29.5710  H     1 <0>         0.0355
32   H13     -25.4760  -13.5491   30.1963  H     1 <0>         0.0355
33   H14     -31.5045  -10.6562   24.5734  H     1 <0>         0.1231
34   H15     -33.0114  -10.4738   25.2423  H     1 <0>         0.0000
@<TRIPOS>BOND
     1    1    2 ar
     2    1    6 ar
     3    2    7 ar
     4    3    4 ar
     5    3    6 ar
     6    4    5 1
     7    4    7 ar
     8    5    8 2
     9    5   12 1
    10    6   15 1
    11    7   16 1
    12    8   13 1
    13    8   16 1
    14    9   10 2
    15   10   15 1
    16   11   14 1
    17   11   18 1
    18   11   19 2
    19   12   14 1
    20   13   17 1
    21   14   17 1
    22    1   20 1
    23    2   21 1
    24    3   22 1
    25    9   23 1
    26    9   24 1
    27   10   25 1
    28   12   26 1
    29   12   27 1
    30   13   28 1
    31   13   29 1
    32   14   30 1
    33   15   31 1
    34   15   32 1
    35   17   33 1
    36   17   34 1
@<TRIPOS>PROPERTY_DATA
  Total_Score	| 9.6471
  Crash		| -1.0900
  Polar		| 6.6413

@<TRIPOS>MOLECULE
ligand_hydrophobic9_002
   34    36     0     0     0
SMALL
USER_CHARGES

@<TRIPOS>ATOM
1    C1      -27.1616  -14.6500   27.7827  C.ar  1 <0>        -0.0563
2    C2      -28.3950  -14.9306   27.1593  C.ar  1 <0>        -0.0375
3    C3      -27.7218  -12.2657   27.8721  C.ar  1 <0>        -0.0488
4    C4      -28.9301  -12.5549   27.2129  C.ar  1 <0>         0.0035
5    C5      -29.9801  -11.7589   26.7763  C.2   1 <0>        -0.0159
6    C6      -26.8166  -13.3263   28.1621  C.ar  1 <0>        -0.0430
7    C7      -29.2693  -13.8674   26.8854  C.ar  1 <0>         0.0470
8    C8      -30.9219  -12.6278   26.2266  C.2   1 <0>         0.0343
9    C9      -25.7964  -14.9192   30.5139  C.2   1 <0>        -0.1023
10   C10     -25.1253  -13.8850   29.9777  C.2   1 <0>        -0.0868
11   C11     -31.5981   -8.4224   25.9394  C.2   1 <0>         0.3223
12   C12     -30.1112  -10.2878   26.7411  C.3   1 <0>         0.0005
13   C13     -32.2046  -12.1670   25.6762  C.3   1 <0>         0.0374
14   C14     -31.5693   -9.8313   26.3988  C.3   1 <0>         0.1101
15   C15     -25.5098  -13.0670   28.8323  C.3   1 <0>        -0.0097
16   N1      -30.4750  -13.8955   26.2976  N.2   1 <0>        -0.3567
17   N2      -32.1833  -10.7120   25.3700  N.4   1 <0>        -0.2984
18   O1      -32.4733   -8.0144   24.9925  O.co2 1 <0>        -0.4795
19   O2      -30.8312   -7.4877   26.5396  O.co2 1 <0>        -0.2492
20   H1      -26.5234  -15.4231   27.9660  H     1 <0>         0.0621
21   H2      -28.6458  -15.8868   26.8927  H     1 <0>         0.0638
22   H3      -27.5005  -11.2995   28.1302  H     1 <0>         0.0627
23   H4      -25.4132  -15.4034   31.2943  H     1 <0>         0.0532
24   H5      -26.6763  -15.2039   30.1687  H     1 <0>         0.0532
25   H6      -24.2692  -13.6386   30.4209  H     1 <0>         0.0570
26   H7      -29.8163   -9.8746   27.7095  H     1 <0>         0.0334
27   H8      -29.4100   -9.9281   25.9823  H     1 <0>         0.0334
28   H9      -32.4217  -12.7076   24.7513  H     1 <0>         0.0488
29   H10     -32.9993  -12.3815   26.3961  H     1 <0>         0.0488
30   H11     -32.1747   -9.8900   27.3090  H     1 <0>         0.0579
31   H12     -24.7322  -13.1872   28.0757  H     1 <0>         0.0355
32   H13     -25.4600  -12.0250   29.1679  H     1 <0>         0.0355
33   H14     -31.6531  -10.5908   24.5042  H     1 <0>         0.1231
34   H15     -33.1465  -10.4128   25.2064  H     1 <0>         0.0000
@<TRIPOS>BOND
     1    1    2 ar
     2    1    6 ar
     3    2    7 ar
     4    3    4 ar
     5    3    6 ar
     6    4    5 1
     7    4    7 ar
     8    5    8 2
     9    5   12 1
    10    6   15 1
    11    7   16 1
    12    8   13 1
    13    8   16 1
    14    9   10 2
    15   10   15 1
    16   11   14 1
    17   11   18 1
    18   11   19 2
    19   12   14 1
    20   13   17 1
    21   14   17 1
    22    1   20 1
    23    2   21 1
    24    3   22 1
    25    9   23 1
    26    9   24 1
    27   10   25 1
    28   12   26 1
    29   12   27 1
    30   13   28 1
    31   13   29 1
    32   14   30 1
    33   15   31 1
    34   15   32 1
    35   17   33 1
    36   17   34 1
@<TRIPOS>PROPERTY_DATA
  Total_Score	| 9.4024
  Crash		| -0.9510
  Polar		| 6.6305

@<TRIPOS>MOLECULE
ligand_hydrophobic12_000
   37    39     0     0     0
SMALL
USER_CHARGES

@<TRIPOS>ATOM
1    C1      -28.1630  -15.6584   27.5994  C.ar  1 <0>        -0.0566
2    C2      -29.1361  -15.7130   26.5816  C.ar  1 <0>        -0.0375
3    C3      -28.6221  -13.2886   27.9611  C.ar  1 <0>        -0.0491
4    C4      -29.5780  -13.3447   26.9299  C.ar  1 <0>         0.0035
5    C5      -30.3903  -12.3797   26.3474  C.2   1 <0>        -0.0159
6    C6      -27.8931  -14.4563   28.3060  C.ar  1 <0>        -0.0464
7    C7      -29.8354  -14.5398   26.2545  C.ar  1 <0>         0.0470
8    C8      -31.1452  -13.0464   25.3789  C.2   1 <0>         0.0343
9    C9      -25.7127  -17.4016   30.1921  C.2   1 <0>        -0.1026
10   C10     -26.9133  -16.8100   30.2083  C.2   1 <0>        -0.0908
11   C11     -31.6813   -8.8077   25.8062  C.2   1 <0>         0.3223
12   C12     -30.4847  -10.9264   26.6035  C.3   1 <0>         0.0005
13   C13     -32.1585  -12.3595   24.5564  C.3   1 <0>         0.0374
14   C14     -31.2694  -10.1883   25.4682  C.3   1 <0>         0.1101
15   C15     -26.8445  -14.4203   29.3709  C.3   1 <0>        -0.0242
16   C16     -27.1053  -15.4096   30.5429  C.3   1 <0>        -0.0310
17   N1      -30.7749  -14.3398   25.3126  N.2   1 <0>        -0.3567
18   N2      -32.4541  -10.9892   25.0503  N.4   1 <0>        -0.2984
19   O1      -32.4486   -8.1081   24.9392  O.co2 1 <0>        -0.4795
20   O2      -31.1378   -8.1362   26.8495  O.co2 1 <0>        -0.2492
21   H1      -27.6373  -16.5079   27.8177  H     1 <0>         0.0621
22   H2      -29.3142  -16.5833   26.0795  H     1 <0>         0.0638
23   H3      -28.4573  -12.4014   28.4391  H     1 <0>         0.0627
24   H4      -25.6292  -18.3706   29.9815  H     1 <0>         0.0532
25   H5      -24.8863  -16.8906   30.4034  H     1 <0>         0.0532
26   H6      -27.7110  -17.3613   29.9974  H     1 <0>         0.0566
27   H7      -30.9773  -10.7852   27.5722  H     1 <0>         0.0334
28   H8      -29.4734  -10.5114   26.6660  H     1 <0>         0.0334
29   H9      -31.8155  -12.3130   23.5219  H     1 <0>         0.0488
30   H10     -33.0893  -12.9280   24.5772  H     1 <0>         0.0488
31   H11     -30.5986  -10.0998   24.6080  H     1 <0>         0.0579
32   H12     -25.8724  -14.6163   28.9102  H     1 <0>         0.0316
33   H13     -26.7880  -13.4147   29.8044  H     1 <0>         0.0316
34   H14     -26.4364  -15.1679   31.3688  H     1 <0>         0.0310
35   H15     -28.1207  -15.2571   30.9084  H     1 <0>         0.0310
36   H16     -32.9501  -10.4952   24.3033  H     1 <0>         0.1231
37   H17     -33.0786  -11.0654   25.8571  H     1 <0>         0.0000
@<TRIPOS>BOND
     1    1    2 ar
     2    1    6 ar
     3    2    7 ar
     4    3    4 ar
     5    3    6 ar
     6    4    5 1
     7    4    7 ar
     8    5    8 2
     9    5   12 1
    10    6   15 1
    11    7   17 1
    12    8   13 1
    13    8   17 1
    14    9   10 2
    15   10   16 1
    16   11   14 1
    17   11   19 1
    18   11   20 2
    19   12   14 1
    20   13   18 1
    21   14   18 1
    22   15   16 1
    23    1   21 1
    24    2   22 1
    25    3   23 1
    26    9   24 1
    27    9   25 1
    28   10   26 1
    29   12   27 1
    30   12   28 1
    31   13   29 1
    32   13   30 1
    33   14   31 1
    34   15   32 1
    35   15   33 1
    36   16   34 1
    37   16   35 1
    38   18   36 1
    39   18   37 1
@<TRIPOS>PROPERTY_DATA
  Total_Score	| 7.9164
  Crash		| -1.2770
  Polar		| 4.0557

@<TRIPOS>MOLECULE
ligand_hydrophobic12_001
   37    39     0     0     0
SMALL
USER_CHARGES

@<TRIPOS>ATOM
1    C1      -28.0563  -15.8031   27.6128  C.ar  1 <0>        -0.0566
2    C2      -29.0508  -15.8457   26.6146  C.ar  1 <0>        -0.0375
3    C3      -28.4915  -13.4255   27.9874  C.ar  1 <0>        -0.0491
4    C4      -29.4561  -13.4703   26.9681  C.ar  1 <0>         0.0035
5    C5      -30.2739  -12.5081   26.4030  C.2   1 <0>        -0.0159
6    C6      -27.7841  -14.6102   28.3307  C.ar  1 <0>        -0.0464
7    C7      -29.7341  -14.6629   26.2933  C.ar  1 <0>         0.0470
8    C8      -31.0365  -13.1588   25.4363  C.2   1 <0>         0.0343
9    C9      -24.6904  -16.4202   31.2747  C.2   1 <0>        -0.1026
10   C10     -25.7862  -16.6321   30.5362  C.2   1 <0>        -0.0908
11   C11     -31.6776   -8.9614   26.0082  C.2   1 <0>         0.3223
12   C12     -30.3927  -11.0605   26.6952  C.3   1 <0>         0.0005
13   C13     -32.0522  -12.4746   24.6168  C.3   1 <0>         0.0374
14   C14     -31.2100  -10.3047   25.5947  C.3   1 <0>         0.1101
15   C15     -26.7413  -14.5999   29.3991  C.3   1 <0>        -0.0242
16   C16     -26.9108  -15.7098   30.4931  C.3   1 <0>        -0.0310
17   N1      -30.6783  -14.4591   25.3633  N.2   1 <0>        -0.3567
18   N2      -32.3762  -11.1196   25.1448  N.4   1 <0>        -0.2984
19   O1      -31.2401   -8.3830   27.1549  O.co2 1 <0>        -0.4795
20   O2      -32.3502   -8.1785   25.1389  O.co2 1 <0>        -0.2492
21   H1      -27.5350  -16.6631   27.8271  H     1 <0>         0.0621
22   H2      -29.2691  -16.7223   26.1365  H     1 <0>         0.0638
23   H3      -28.2995  -12.5438   28.4632  H     1 <0>         0.0627
24   H4      -23.9466  -17.0761   31.2676  H     1 <0>         0.0532
25   H5      -24.6081  -15.6107   31.8426  H     1 <0>         0.0532
26   H6      -25.8298  -17.4548   29.9786  H     1 <0>         0.0566
27   H7      -30.8732  -10.9580   27.6700  H     1 <0>         0.0334
28   H8      -29.3936  -10.6203   26.7552  H     1 <0>         0.0334
29   H9      -31.6993  -12.3974   23.5857  H     1 <0>         0.0488
30   H10     -32.9733  -13.0603   24.6151  H     1 <0>         0.0488
31   H11     -30.5516  -10.1521   24.7325  H     1 <0>         0.0579
32   H12     -25.7682  -14.6816   28.8999  H     1 <0>         0.0316
33   H13     -26.7339  -13.6287   29.9069  H     1 <0>         0.0316
34   H14     -27.0427  -15.2384   31.4736  H     1 <0>         0.0310
35   H15     -27.8201  -16.2936   30.3131  H     1 <0>         0.0310
36   H16     -32.8802  -10.6195   24.4086  H     1 <0>         0.1231
37   H17     -33.0046  -11.2363   25.9429  H     1 <0>         0.0000
@<TRIPOS>BOND
     1    1    2 ar
     2    1    6 ar
     3    2    7 ar
     4    3    4 ar
     5    3    6 ar
     6    4    5 1
     7    4    7 ar
     8    5    8 2
     9    5   12 1
    10    6   15 1
    11    7   17 1
    12    8   13 1
    13    8   17 1
    14    9   10 2
    15   10   16 1
    16   11   14 1
    17   11   19 1
    18   11   20 2
    19   12   14 1
    20   13   18 1
    21   14   18 1
    22   15   16 1
    23    1   21 1
    24    2   22 1
    25    3   23 1
    26    9   24 1
    27    9   25 1
    28   10   26 1
    29   12   27 1
    30   12   28 1
    31   13   29 1
    32   13   30 1
    33   14   31 1
    34   15   32 1
    35   15   33 1
    36   16   34 1
    37   16   35 1
    38   18   36 1
    39   18   37 1
@<TRIPOS>PROPERTY_DATA
  Total_Score	| 7.9094
  Crash		| -1.2547
  Polar		| 3.7075

@<TRIPOS>MOLECULE
ligand_hydrophobic12_002
   37    39     0     0     0
SMALL
USER_CHARGES

@<TRIPOS>ATOM
1    C1      -28.2152  -15.6431   28.0051  C.ar  1 <0>        -0.0566
2    C2      -29.1131  -15.7310   26.9203  C.ar  1 <0>        -0.0375
3    C3      -28.6309  -13.2471   28.2030  C.ar  1 <0>        -0.0491
4    C4      -29.5298  -13.3384   27.1230  C.ar  1 <0>         0.0035
5    C5      -30.3017  -12.3874   26.4689  C.2   1 <0>        -0.0159
6    C6      -27.9517  -14.4056   28.6535  C.ar  1 <0>        -0.0464
7    C7      -29.7533  -14.5581   26.4786  C.ar  1 <0>         0.0470
8    C8      -30.9926  -13.0793   25.4717  C.2   1 <0>         0.0343
9    C9      -24.7725  -12.8702   27.3228  C.2   1 <0>        -0.1026
10   C10     -25.2322  -12.9471   28.5788  C.2   1 <0>        -0.0908
11   C11     -31.6455   -8.8553   25.8550  C.2   1 <0>         0.3223
12   C12     -30.4400  -10.9345   26.7105  C.3   1 <0>         0.0005
13   C13     -31.9711  -12.4233   24.5825  C.3   1 <0>         0.0374
14   C14     -31.1839  -10.2221   25.5336  C.3   1 <0>         0.1101
15   C15     -26.9721  -14.3186   29.7681  C.3   1 <0>        -0.0242
16   C16     -25.5018  -14.1924   29.2823  C.3   1 <0>        -0.0310
17   N1      -30.6298  -14.3808   25.4718  N.2   1 <0>        -0.3567
18   N2      -32.3222  -11.0504   25.0390  N.4   1 <0>        -0.2984
19   O1      -31.1088   -8.1523   26.8832  O.co2 1 <0>        -0.4795
20   O2      -32.3730   -8.1659   24.9402  O.co2 1 <0>        -0.2492
21   H1      -27.7488  -16.4985   28.3193  H     1 <0>         0.0621
22   H2      -29.2921  -16.6222   26.4555  H     1 <0>         0.0638
23   H3      -28.4700  -12.3381   28.6524  H     1 <0>         0.0627
24   H4      -24.6126  -11.9847   26.9051  H     1 <0>         0.0532
25   H5      -24.6101  -13.6873   26.7899  H     1 <0>         0.0532
26   H6      -25.3921  -12.0956   29.0649  H     1 <0>         0.0566
27   H7      -30.9791  -10.8046   27.6547  H     1 <0>         0.0334
28   H8      -29.4435  -10.5010   26.8204  H     1 <0>         0.0334
29   H9      -31.5700  -12.3804   23.5697  H     1 <0>         0.0488
30   H10     -32.8922  -13.0058   24.5574  H     1 <0>         0.0488
31   H11     -30.4664  -10.1080   24.7147  H     1 <0>         0.0579
32   H12     -27.2141  -13.4685   30.4106  H     1 <0>         0.0316
33   H13     -27.0457  -15.2145   30.3878  H     1 <0>         0.0316
34   H14     -24.8393  -14.2228   30.1526  H     1 <0>         0.0310
35   H15     -25.2562  -15.0569   28.6573  H     1 <0>         0.0310
36   H16     -32.7602  -10.5721   24.2524  H     1 <0>         0.1231
37   H17     -33.0102  -11.1281   25.7918  H     1 <0>         0.0000
@<TRIPOS>BOND
     1    1    2 ar
     2    1    6 ar
     3    2    7 ar
     4    3    4 ar
     5    3    6 ar
     6    4    5 1
     7    4    7 ar
     8    5    8 2
     9    5   12 1
    10    6   15 1
    11    7   17 1
    12    8   13 1
    13    8   17 1
    14    9   10 2
    15   10   16 1
    16   11   14 1
    17   11   19 1
    18   11   20 2
    19   12   14 1
    20   13   18 1
    21   14   18 1
    22   15   16 1
    23    1   21 1
    24    2   22 1
    25    3   23 1
    26    9   24 1
    27    9   25 1
    28   10   26 1
    29   12   27 1
    30   12   28 1
    31   13   29 1
    32   13   30 1
    33   14   31 1
    34   15   32 1
    35   15   33 1
    36   16   34 1
    37   16   35 1
    38   18   36 1
    39   18   37 1
@<TRIPOS>PROPERTY_DATA
  Total_Score	| 7.8282
  Crash		| -1.0147
  Polar		| 4.0173

@<TRIPOS>MOLECULE
ligand_uncharged13_000
   26    28     0     0     0
SMALL
USER_CHARGES

@<TRIPOS>ATOM
1    C1      -28.5912  -15.8159   27.8091  C.ar  1 <0>        -0.0414
2    C2      -29.4726  -15.8184   26.7071  C.ar  1 <0>        -0.0364
3    C3      -28.8821  -13.3987   28.0808  C.ar  1 <0>        -0.0340
4    C4      -29.7660  -13.4170   26.9859  C.ar  1 <0>         0.0046
5    C5      -28.2911  -14.6171   28.4930  C.ar  1 <0>         0.0417
6    C6      -30.4800  -12.4543   26.3442  C.2   1 <0>        -0.0158
7    C7      -30.0523  -14.6040   26.3093  C.ar  1 <0>         0.0470
8    C8      -31.1738  -13.0830   25.3698  C.cat 1 <0>         0.0343
9    C9      -31.6049   -8.8480   25.7889  C.2   1 <0>         0.3223
10   C10     -30.5416  -11.0254   26.6103  C.3   1 <0>         0.0005
11   C11     -32.1129  -12.4010   24.5009  C.3   1 <0>         0.0374
12   C12     -31.2101  -10.2336   25.4402  C.3   1 <0>         0.1101
13   N1      -30.8810  -14.3442   25.3314  N.2   1 <0>        -0.3567
14   N2      -32.3811  -10.9976   24.9237  N.3   1 <0>        -0.2984
15   O1      -32.2887   -8.0929   24.8969  O.co2 1 <0>        -0.4795
16   O2      -31.0808   -8.2159   26.8633  O.co2 1 <0>        -0.2492
17   Cl1     -27.2283  -14.6355   29.8100  Cl    1 <0>        -0.0835
18   H1      -28.1622  -16.6944   28.1065  H     1 <0>         0.0633
19   H2      -29.6833  -16.6857   26.2073  H     1 <0>         0.0639
20   H3      -28.6706  -12.5225   28.5630  H     1 <0>         0.0639
21   H4      -31.1046  -10.8855   27.5366  H     1 <0>         0.0334
22   H5      -29.5286  -10.6469   26.7646  H     1 <0>         0.0334
23   H6      -31.7259  -12.4081   23.4801  H     1 <0>         0.0488
24   H7      -33.0608  -12.9407   24.5062  H     1 <0>         0.0488
25   H8      -30.4842  -10.1494   24.6354  H     1 <0>         0.0579
26   H9      -32.8209  -10.4977   24.1421  H     1 <0>         0.1231
@<TRIPOS>BOND
     1    1    2 ar
     2    1    5 ar
     3    2    7 ar
     4    3    4 ar
     5    3    5 ar
     6    4    6 2
     7    4    7 ar
     8    5   17 1
     9    6    8 1
    10    6   10 1
    11    7   13 2
    12    8   11 1
    13    8   13 1
    14    9   12 1
    15    9   15 1
    16    9   16 2
    17   10   12 1
    18   11   14 1
    19   12   14 1
    20    1   18 1
    21    2   19 1
    22    3   20 1
    23   10   21 1
    24   10   22 1
    25   11   23 1
    26   11   24 1
    27   12   25 1
    28   14   26 1
@<TRIPOS>PROPERTY_DATA
  Total_Score	| 6.1620
  Crash		| -1.0598
  Polar		| 4.0776

@<TRIPOS>MOLECULE
ligand_uncharged13_001
   26    28     0     0     0
SMALL
USER_CHARGES

@<TRIPOS>ATOM
1    C1      -28.5139  -15.8158   27.6807  C.ar  1 <0>        -0.0414
2    C2      -29.3885  -15.7900   26.5768  C.ar  1 <0>        -0.0364
3    C3      -28.8738  -13.4184   28.0561  C.ar  1 <0>        -0.0340
4    C4      -29.7552  -13.4105   26.9573  C.ar  1 <0>         0.0046
5    C5      -28.2581  -14.6349   28.4222  C.ar  1 <0>         0.0417
6    C6      -30.4776  -12.4405   26.3393  C.2   1 <0>        -0.0158
7    C7      -30.0105  -14.5756   26.2325  C.ar  1 <0>         0.0470
8    C8      -31.1752  -13.0548   25.3626  C.cat 1 <0>         0.0343
9    C9      -31.6400   -8.8481   25.8150  C.2   1 <0>         0.3223
10   C10     -30.5559  -11.0161   26.6382  C.3   1 <0>         0.0005
11   C11     -32.1727  -12.3742   24.5529  C.3   1 <0>         0.0374
12   C12     -31.2566  -10.2310   25.4816  C.3   1 <0>         0.1101
13   N1      -30.8498  -14.3030   25.2656  N.2   1 <0>        -0.3567
14   N2      -32.4492  -10.9953   25.0417  N.3   1 <0>        -0.2984
15   O1      -32.3889   -8.1523   24.9345  O.co2 1 <0>        -0.4795
16   O2      -31.0843   -8.1689   26.8475  O.co2 1 <0>        -0.2492
17   Cl1     -27.1987  -14.6874   29.7431  Cl    1 <0>        -0.0835
18   H1      -28.0570  -16.6912   27.9345  H     1 <0>         0.0633
19   H2      -29.5680  -16.6376   26.0319  H     1 <0>         0.0639
20   H3      -28.6872  -12.5588   28.5779  H     1 <0>         0.0639
21   H4      -31.1152  -10.9067   27.5715  H     1 <0>         0.0334
22   H5      -29.5478  -10.6174   26.7833  H     1 <0>         0.0334
23   H6      -31.8290  -12.3335   23.5173  H     1 <0>         0.0488
24   H7      -33.1116  -12.9285   24.5847  H     1 <0>         0.0488
25   H8      -30.5603  -10.1636   24.6414  H     1 <0>         0.0579
26   H9      -32.9965  -10.4822   24.3440  H     1 <0>         0.1231
@<TRIPOS>BOND
     1    1    2 ar
     2    1    5 ar
     3    2    7 ar
     4    3    4 ar
     5    3    5 ar
     6    4    6 2
     7    4    7 ar
     8    5   17 1
     9    6    8 1
    10    6   10 1
    11    7   13 2
    12    8   11 1
    13    8   13 1
    14    9   12 1
    15    9   15 1
    16    9   16 2
    17   10   12 1
    18   11   14 1
    19   12   14 1
    20    1   18 1
    21    2   19 1
    22    3   20 1
    23   10   21 1
    24   10   22 1
    25   11   23 1
    26   11   24 1
    27   12   25 1
    28   14   26 1
@<TRIPOS>PROPERTY_DATA
  Total_Score	| 5.8793
  Crash		| -0.9866
  Polar		| 4.0938

@<TRIPOS>MOLECULE
ligand_uncharged13_002
   26    28     0     0     0
SMALL
USER_CHARGES

@<TRIPOS>ATOM
1    C1      -26.9560  -14.6801   28.1340  C.ar  1 <0>        -0.0414
2    C2      -28.2203  -14.9828   27.5928  C.ar  1 <0>        -0.0364
3    C3      -27.4356  -12.2787   27.9744  C.ar  1 <0>        -0.0340
4    C4      -28.6839  -12.5941   27.4158  C.ar  1 <0>         0.0046
5    C5      -26.5681  -13.3306   28.3405  C.ar  1 <0>         0.0417
6    C6      -29.7130  -11.8511   26.9321  C.2   1 <0>        -0.0158
7    C7      -29.0717  -13.9223   27.2299  C.ar  1 <0>         0.0470
8    C8      -30.6527  -12.7384   26.5443  C.cat 1 <0>         0.0343
9    C9      -31.4292   -8.5817   25.8637  C.2   1 <0>         0.3223
10   C10     -29.8663  -10.3976   26.8256  C.3   1 <0>         0.0005
11   C11     -31.9599  -12.3413   26.0016  C.3   1 <0>         0.0374
12   C12     -31.0203  -10.0095   25.8340  C.3   1 <0>         0.1101
13   N1      -30.2655  -13.9621   26.6960  N.2   1 <0>        -0.3567
14   N2      -32.1983  -10.8793   26.0931  N.3   1 <0>        -0.2984
15   O1      -32.3972   -8.1094   25.0187  O.co2 1 <0>        -0.4795
16   O2      -30.7932   -7.6800   26.6515  O.co2 1 <0>        -0.2492
17   Cl1     -25.0501  -12.9944   29.0131  Cl    1 <0>        -0.0835
18   H1      -26.3271  -15.4400   28.4013  H     1 <0>         0.0633
19   H2      -28.5081  -15.9497   27.4599  H     1 <0>         0.0639
20   H3      -27.1626  -11.3049   28.1105  H     1 <0>         0.0639
21   H4      -30.0849  -10.0080   27.8215  H     1 <0>         0.0334
22   H5      -28.9305   -9.9796   26.4712  H     1 <0>         0.0334
23   H6      -32.0096  -12.6617   24.9518  H     1 <0>         0.0488
24   H7      -32.7475  -12.8503   26.5624  H     1 <0>         0.0488
25   H8      -30.6561  -10.2112   24.8278  H     1 <0>         0.0579
26   H9      -32.9836  -10.6117   25.4938  H     1 <0>         0.1231
@<TRIPOS>BOND
     1    1    2 ar
     2    1    5 ar
     3    2    7 ar
     4    3    4 ar
     5    3    5 ar
     6    4    6 2
     7    4    7 ar
     8    5   17 1
     9    6    8 1
    10    6   10 1
    11    7   13 2
    12    8   11 1
    13    8   13 1
    14    9   12 1
    15    9   15 1
    16    9   16 2
    17   10   12 1
    18   11   14 1
    19   12   14 1
    20    1   18 1
    21    2   19 1
    22    3   20 1
    23   10   21 1
    24   10   22 1
    25   11   23 1
    26   11   24 1
    27   12   25 1
    28   14   26 1
@<TRIPOS>PROPERTY_DATA
  Total_Score	| 5.8732
  Crash		| -0.6833
  Polar		| 4.4100

@<TRIPOS>MOLECULE
ligand_hydrophobic20_000
   42    44     0     0     0
SMALL
USER_CHARGES

@<TRIPOS>ATOM
1    C1      -28.6899  -15.8601   27.8464  C.ar  1 <0>        -0.0566
2    C2      -29.5466  -15.8718   26.7256  C.ar  1 <0>        -0.0375
3    C3      -28.9971  -13.4497   28.1012  C.ar  1 <0>        -0.0491
4    C4      -29.8748  -13.4789   27.0074  C.ar  1 <0>         0.0035
5    C5      -30.6247  -12.4858   26.3897  C.2   1 <0>        -0.0159
6    C6      -28.3955  -14.6555   28.5408  C.ar  1 <0>        -0.0467
7    C7      -30.1439  -14.6634   26.3205  C.ar  1 <0>         0.0470
8    C8      -31.3082  -13.1084   25.3497  C.2   1 <0>         0.0343
9    C9      -31.8670   -8.9038   25.9966  C.2   1 <0>         0.3223
10   C10     -30.7089  -11.0385   26.6831  C.3   1 <0>         0.0005
11   C11     -32.2583  -12.3817   24.4876  C.3   1 <0>         0.0374
12   C12     -31.9692  -10.3838   26.0302  C.3   1 <0>         0.1101
13   C13     -24.5191  -13.2579   28.1659  C.3   1 <0>        -0.0627
14   C14     -24.5957  -15.5920   27.0812  C.3   1 <0>        -0.0627
15   C15     -27.3839  -14.6328   29.6351  C.3   1 <0>        -0.0274
16   C16     -25.9766  -15.1460   29.2124  C.3   1 <0>        -0.0467
17   C17     -25.3762  -14.5282   27.8957  C.3   1 <0>        -0.0464
18   N1      -30.9880  -14.4197   25.3021  N.2   1 <0>        -0.3567
19   N2      -32.1594  -10.9050   24.6489  N.4   1 <0>        -0.2984
20   O1      -31.2391   -8.2297   26.9889  O.co2 1 <0>        -0.4795
21   O2      -32.5548   -8.1690   25.0887  O.co2 1 <0>        -0.2492
22   H1      -28.2650  -16.7387   28.1447  H     1 <0>         0.0621
23   H2      -29.7305  -16.7397   26.2176  H     1 <0>         0.0638
24   H3      -28.8025  -12.5613   28.5677  H     1 <0>         0.0627
25   H4      -30.7391  -10.8854   27.7646  H     1 <0>         0.0334
26   H5      -29.7971  -10.5753   26.2950  H     1 <0>         0.0334
27   H6      -32.0537  -12.6223   23.4441  H     1 <0>         0.0488
28   H7      -33.2705  -12.7081   24.7284  H     1 <0>         0.0488
29   H8      -32.8530  -10.6459   26.6215  H     1 <0>         0.0579
30   H9      -23.6374  -13.4995   28.7616  H     1 <0>         0.0232
31   H10     -25.1070  -12.5090   28.7015  H     1 <0>         0.0232
32   H11     -24.1886  -12.8157   27.2221  H     1 <0>         0.0232
33   H12     -23.7894  -16.0244   27.6749  H     1 <0>         0.0232
34   H13     -24.1771  -15.1556   26.1736  H     1 <0>         0.0232
35   H14     -25.2732  -16.3936   26.7814  H     1 <0>         0.0232
36   H15     -27.7565  -15.2622   30.4462  H     1 <0>         0.0313
37   H16     -27.2705  -13.6260   30.0467  H     1 <0>         0.0313
38   H17     -25.2833  -14.9795   30.0448  H     1 <0>         0.0271
39   H18     -26.0556  -16.2319   29.1049  H     1 <0>         0.0271
40   H19     -26.1850  -14.2000   27.2388  H     1 <0>         0.0296
41   H20     -31.3554  -10.5949   24.1064  H     1 <0>         0.1231
42   H21     -33.0022  -10.4940   24.2437  H     1 <0>         0.0000
@<TRIPOS>BOND
     1    1    2 ar
     2    1    6 ar
     3    2    7 ar
     4    3    4 ar
     5    3    6 ar
     6    4    5 1
     7    4    7 ar
     8    5    8 2
     9    5   10 1
    10    6   15 1
    11    7   18 1
    12    8   11 1
    13    8   18 1
    14    9   12 1
    15    9   20 1
    16    9   21 2
    17   10   12 1
    18   11   19 1
    19   12   19 1
    20   13   17 1
    21   14   17 1
    22   15   16 1
    23   16   17 1
    24    1   22 1
    25    2   23 1
    26    3   24 1
    27   10   25 1
    28   10   26 1
    29   11   27 1
    30   11   28 1
    31   12   29 1
    32   13   30 1
    33   13   31 1
    34   13   32 1
    35   14   33 1
    36   14   34 1
    37   14   35 1
    38   15   36 1
    39   15   37 1
    40   16   38 1
    41   16   39 1
    42   17   40 1
    43   19   41 1
    44   19   42 1
@<TRIPOS>PROPERTY_DATA
  Total_Score	| 10.0161
  Crash		| -1.2511
  Polar		| 4.6414

@<TRIPOS>MOLECULE
ligand_hydrophobic20_001
   42    44     0     0     0
SMALL
USER_CHARGES

@<TRIPOS>ATOM
1    C1      -28.8324  -16.0735   27.4234  C.ar  1 <0>        -0.0566
2    C2      -29.7395  -15.9896   26.3520  C.ar  1 <0>        -0.0375
3    C3      -29.0912  -13.6899   27.8797  C.ar  1 <0>        -0.0491
4    C4      -29.9982  -13.6123   26.8109  C.ar  1 <0>         0.0035
5    C5      -30.7355  -12.5710   26.2609  C.2   1 <0>        -0.0159
6    C6      -28.5126  -14.9410   28.2135  C.ar  1 <0>        -0.0467
7    C7      -30.3235  -14.7480   26.0700  C.ar  1 <0>         0.0470
8    C8      -31.4795  -13.1271   25.2213  C.2   1 <0>         0.0343
9    C9      -31.9052   -8.9504   26.0590  C.2   1 <0>         0.3223
10   C10     -30.7422  -11.1266   26.5698  C.3   1 <0>         0.0005
11   C11     -32.4039  -12.3439   24.3877  C.3   1 <0>         0.0374
12   C12     -32.0278  -10.4270   26.0191  C.3   1 <0>         0.1101
13   C13     -24.5094  -13.1007   27.8943  C.3   1 <0>        -0.0627
14   C14     -25.0063  -15.5738   27.4473  C.3   1 <0>        -0.0627
15   C15     -27.6055  -15.0646   29.3884  C.3   1 <0>        -0.0274
16   C16     -26.2721  -14.2797   29.2999  C.3   1 <0>        -0.0467
17   C17     -25.5904  -14.2092   27.9009  C.3   1 <0>        -0.0464
18   N1      -31.2028  -14.4379   25.1026  N.2   1 <0>        -0.3567
19   N2      -32.3174  -10.8784   24.6281  N.4   1 <0>        -0.2984
20   O1      -32.5029   -8.1597   25.1343  O.co2 1 <0>        -0.4795
21   O2      -31.2373   -8.3425   27.0685  O.co2 1 <0>        -0.2492
22   H1      -28.4128  -16.9747   27.6329  H     1 <0>         0.0621
23   H2      -29.9774  -16.8180   25.8064  H     1 <0>         0.0638
24   H3      -28.8760  -12.8441   28.4099  H     1 <0>         0.0627
25   H4      -30.6851  -10.9840   27.6506  H     1 <0>         0.0334
26   H5      -29.8507  -10.6889   26.1122  H     1 <0>         0.0334
27   H6      -32.1526  -12.5239   23.3421  H     1 <0>         0.0488
28   H7      -33.4255  -12.6821   24.5706  H     1 <0>         0.0488
29   H8      -32.8780  -10.7098   26.6486  H     1 <0>         0.0579
30   H9      -23.7049  -13.3390   28.5905  H     1 <0>         0.0232
31   H10     -24.9463  -12.1457   28.1887  H     1 <0>         0.0232
32   H11     -24.0853  -12.9779   26.8977  H     1 <0>         0.0232
33   H12     -24.2332  -15.9158   28.1319  H     1 <0>         0.0232
34   H13     -24.5743  -15.4903   26.4510  H     1 <0>         0.0232
35   H14     -25.7827  -16.3293   27.3919  H     1 <0>         0.0232
36   H15     -27.3658  -16.1122   29.5821  H     1 <0>         0.0313
37   H16     -28.1514  -14.7144   30.2680  H     1 <0>         0.0313
38   H17     -26.4594  -13.2648   29.6504  H     1 <0>         0.0271
39   H18     -25.5727  -14.7150   30.0153  H     1 <0>         0.0271
40   H19     -26.3452  -13.9178   27.1665  H     1 <0>         0.0296
41   H20     -31.5688  -10.5183   24.0348  H     1 <0>         0.1231
42   H21     -33.2022  -10.4658   24.3213  H     1 <0>         0.0000
@<TRIPOS>BOND
     1    1    2 ar
     2    1    6 ar
     3    2    7 ar
     4    3    4 ar
     5    3    6 ar
     6    4    5 1
     7    4    7 ar
     8    5    8 2
     9    5   10 1
    10    6   15 1
    11    7   18 1
    12    8   11 1
    13    8   18 1
    14    9   12 1
    15    9   20 1
    16    9   21 2
    17   10   12 1
    18   11   19 1
    19   12   19 1
    20   13   17 1
    21   14   17 1
    22   15   16 1
    23   16   17 1
    24    1   22 1
    25    2   23 1
    26    3   24 1
    27   10   25 1
    28   10   26 1
    29   11   27 1
    30   11   28 1
    31   12   29 1
    32   13   30 1
    33   13   31 1
    34   13   32 1
    35   14   33 1
    36   14   34 1
    37   14   35 1
    38   15   36 1
    39   15   37 1
    40   16   38 1
    41   16   39 1
    42   17   40 1
    43   19   41 1
    44   19   42 1
@<TRIPOS>PROPERTY_DATA
  Total_Score	| 9.9403
  Crash		| -1.1783
  Polar		| 4.5749

@<TRIPOS>MOLECULE
ligand_hydrophobic20_002
   42    44     0     0     0
SMALL
USER_CHARGES

@<TRIPOS>ATOM
1    C1      -28.9043  -15.8580   27.7624  C.ar  1 <0>        -0.0566
2    C2      -29.6604  -15.7748   26.5774  C.ar  1 <0>        -0.0375
3    C3      -29.1339  -13.4524   28.1168  C.ar  1 <0>        -0.0491
4    C4      -29.9575  -13.3921   26.9769  C.ar  1 <0>         0.0035
5    C5      -30.6848  -12.3672   26.3724  C.2   1 <0>        -0.0159
6    C6      -28.6033  -14.7038   28.5357  C.ar  1 <0>        -0.0467
7    C7      -30.2089  -14.5362   26.2185  C.ar  1 <0>         0.0470
8    C8      -31.3468  -12.9523   25.2984  C.2   1 <0>         0.0343
9    C9      -31.7766   -8.7488   25.8520  C.2   1 <0>         0.3223
10   C10     -30.7860  -10.9296   26.7104  C.3   1 <0>         0.0005
11   C11     -32.2668  -12.2214   24.4247  C.3   1 <0>         0.0374
12   C12     -31.9567  -10.2186   25.9495  C.3   1 <0>         0.1101
13   C13     -24.7179  -17.2981   29.5810  C.3   1 <0>        -0.0627
14   C14     -25.7033  -15.9564   27.6592  C.3   1 <0>        -0.0627
15   C15     -27.8192  -14.7743   29.8078  C.3   1 <0>        -0.0274
16   C16     -26.8500  -15.9722   30.0556  C.3   1 <0>        -0.0467
17   C17     -25.5334  -16.0265   29.2056  C.3   1 <0>        -0.0464
18   N1      -31.0313  -14.2581   25.2000  N.2   1 <0>        -0.3567
19   N2      -32.1205  -10.7540   24.5707  N.4   1 <0>        -0.2984
20   O1      -32.5484   -8.0232   25.0108  O.co2 1 <0>        -0.4795
21   O2      -31.0694   -8.0626   26.7825  O.co2 1 <0>        -0.2492
22   H1      -28.5681  -16.7785   28.0443  H     1 <0>         0.0621
23   H2      -29.8359  -16.6067   26.0080  H     1 <0>         0.0638
24   H3      -28.9498  -12.5938   28.6563  H     1 <0>         0.0627
25   H4      -30.9367  -10.8160   27.7878  H     1 <0>         0.0334
26   H5      -29.8238  -10.4761   26.4539  H     1 <0>         0.0334
27   H6      -32.0503  -12.4811   23.3870  H     1 <0>         0.0488
28   H7      -33.2936  -12.5195   24.6522  H     1 <0>         0.0488
29   H8      -32.8880  -10.4010   26.4895  H     1 <0>         0.0579
30   H9      -25.2945  -18.2058   29.3819  H     1 <0>         0.0232
31   H10     -24.4496  -17.2822   30.6406  H     1 <0>         0.0232
32   H11     -23.7912  -17.3426   29.0010  H     1 <0>         0.0232
33   H12     -26.3065  -16.7927   27.2920  H     1 <0>         0.0232
34   H13     -24.7205  -15.9818   27.1643  H     1 <0>         0.0232
35   H14     -26.1832  -15.0230   27.3713  H     1 <0>         0.0232
36   H15     -28.5533  -14.7676   30.6211  H     1 <0>         0.0313
37   H16     -27.2302  -13.8590   29.9173  H     1 <0>         0.0313
38   H17     -26.5466  -15.8957   31.1087  H     1 <0>         0.0271
39   H18     -27.4066  -16.9163   29.9688  H     1 <0>         0.0271
40   H19     -24.9355  -15.1607   29.4937  H     1 <0>         0.0296
41   H20     -31.2991  -10.4738   24.0394  H     1 <0>         0.1231
42   H21     -32.9467  -10.3307   24.1427  H     1 <0>         0.0000
@<TRIPOS>BOND
     1    1    2 ar
     2    1    6 ar
     3    2    7 ar
     4    3    4 ar
     5    3    6 ar
     6    4    5 1
     7    4    7 ar
     8    5    8 2
     9    5   10 1
    10    6   15 1
    11    7   18 1
    12    8   11 1
    13    8   18 1
    14    9   12 1
    15    9   20 1
    16    9   21 2
    17   10   12 1
    18   11   19 1
    19   12   19 1
    20   13   17 1
    21   14   17 1
    22   15   16 1
    23   16   17 1
    24    1   22 1
    25    2   23 1
    26    3   24 1
    27   10   25 1
    28   10   26 1
    29   11   27 1
    30   11   28 1
    31   12   29 1
    32   13   30 1
    33   13   31 1
    34   13   32 1
    35   14   33 1
    36   14   34 1
    37   14   35 1
    38   15   36 1
    39   15   37 1
    40   16   38 1
    41   16   39 1
    42   17   40 1
    43   19   41 1
    44   19   42 1
@<TRIPOS>PROPERTY_DATA
  Total_Score	| 9.7726
  Crash		| -1.7867
  Polar		| 4.7936

@<TRIPOS>MOLECULE
ligand_hydrophobic27_000
   52    57     0     0     0
SMALL
USER_CHARGES

@<TRIPOS>ATOM
1    C1      -27.1283  -11.2798   28.1390  C.ar  1 <0>        -0.0561
2    C2      -27.8173  -10.0806   27.8724  C.ar  1 <0>        -0.0375
3    C3      -28.7368  -12.5398   26.8055  C.ar  1 <0>        -0.0486
4    C4      -29.4400  -11.3451   26.5785  C.ar  1 <0>         0.0035
5    C5      -27.5707  -12.5257   27.6090  C.ar  1 <0>        -0.0405
6    C6      -30.6395  -11.0643   25.9427  C.2   1 <0>        -0.0159
7    C7      -28.9779  -10.1316   27.0968  C.ar  1 <0>         0.0470
8    C8      -30.8139   -9.6803   26.0445  C.2   1 <0>         0.0343
9    C9      -34.1951  -12.0793   25.1618  C.2   1 <0>         0.3223
10   C10     -31.6885  -11.9934   25.4609  C.3   1 <0>         0.0005
11   C11     -32.0153   -9.0108   25.5214  C.3   1 <0>         0.0374
12   C12     -25.0939  -16.0468   27.4974  C.3   1 <0>        -0.0444
13   C13     -26.8748  -14.2816   29.2196  C.3   1 <0>        -0.0401
14   C14     -25.1653  -13.7385   27.8571  C.3   1 <0>        -0.0379
15   C15     -27.9217  -15.0876   28.3137  C.3   1 <0>        -0.0376
16   C16     -32.9759  -11.2551   24.9626  C.3   1 <0>         0.1101
17   C17     -26.4796  -15.8416   28.2156  C.3   1 <0>        -0.0344
18   C18     -24.5326  -15.1602   28.5169  C.3   1 <0>        -0.0111
19   C19     -26.9333  -16.0471   29.4504  C.3   1 <0>        -0.0085
20   C20     -26.8650  -13.8115   27.8934  C.3   1 <0>        -0.0032
21   C21     -25.2489  -16.1032   29.7321  C.3   1 <0>         0.0692
22   C22     -24.8583  -15.6378   31.1783  C.3   1 <0>        -0.0355
23   N1      -29.8251   -9.1382   26.7761  N.2   1 <0>        -0.3567
24   N2      -33.1594   -9.9432   25.6467  N.4   1 <0>        -0.2984
25   O1      -34.9631  -12.4284   24.1059  O.co2 1 <0>        -0.4795
26   O2      -34.7800  -12.1333   26.3789  O.co2 1 <0>        -0.2492
27   O3      -24.8451  -17.4976   29.7673  O.3   1 <0>        -0.3883
28   H1      -26.3022  -11.2264   28.7306  H     1 <0>         0.0621
29   H2      -27.4824   -9.1924   28.2513  H     1 <0>         0.0638
30   H3      -29.1033  -13.4105   26.4147  H     1 <0>         0.0627
31   H4      -31.2795  -12.5986   24.6503  H     1 <0>         0.0334
32   H5      -31.9331  -12.6568   26.2967  H     1 <0>         0.0334
33   H6      -32.2212   -8.1002   26.0860  H     1 <0>         0.0488
34   H7      -31.8546   -8.7404   24.4768  H     1 <0>         0.0488
35   H8      -24.6472  -17.0473   27.4870  H     1 <0>         0.0272
36   H9      -25.0879  -15.7191   26.4532  H     1 <0>         0.0272
37   H10     -27.6170  -13.7340   29.9583  H     1 <0>         0.0277
38   H11     -26.1183  -13.8011   29.8842  H     1 <0>         0.0277
39   H12     -24.7596  -12.8985   28.4283  H     1 <0>         0.0277
40   H13     -24.8255  -13.5621   26.8288  H     1 <0>         0.0277
41   H14     -28.4671  -15.4718   27.3698  H     1 <0>         0.0277
42   H15     -28.9616  -14.8726   28.7608  H     1 <0>         0.0277
43   H16     -32.8703  -11.0564   23.8903  H     1 <0>         0.0579
44   H17     -26.8194  -16.8383   27.6941  H     1 <0>         0.0305
45   H18     -23.4428  -15.1885   28.5201  H     1 <0>         0.0329
46   H19     -27.4128  -17.0110   29.6836  H     1 <0>         0.0331
47   H20     -25.6861  -15.8392   31.8576  H     1 <0>         0.0257
48   H21     -24.6207  -14.5752   31.2338  H     1 <0>         0.0257
49   H22     -23.9744  -16.1651   31.5508  H     1 <0>         0.0257
50   H23     -33.2774  -10.1316   26.6418  H     1 <0>         0.1231
51   H24     -34.0120   -9.5052   25.2939  H     1 <0>         0.0000
52   H25     -23.8639  -17.4741   29.7186  H     1 <0>         0.2102
@<TRIPOS>BOND
     1    1    2 ar
     2    1    5 ar
     3    2    7 ar
     4    3    4 ar
     5    3    5 ar
     6    4    6 1
     7    4    7 ar
     8    5   20 1
     9    6    8 2
    10    6   10 1
    11    7   23 1
    12    8   11 1
    13    8   23 1
    14    9   16 1
    15    9   25 1
    16    9   26 2
    17   10   16 1
    18   11   24 1
    19   12   17 1
    20   12   18 1
    21   13   17 1
    22   13   20 1
    23   14   18 1
    24   14   20 1
    25   15   19 1
    26   15   20 1
    27   16   24 1
    28   17   19 1
    29   18   21 1
    30   19   21 1
    31   21   22 1
    32   21   27 1
    33    1   28 1
    34    2   29 1
    35    3   30 1
    36   10   31 1
    37   10   32 1
    38   11   33 1
    39   11   34 1
    40   12   35 1
    41   12   36 1
    42   13   37 1
    43   13   38 1
    44   14   39 1
    45   14   40 1
    46   15   41 1
    47   15   42 1
    48   16   43 1
    49   17   44 1
    50   18   45 1
    51   19   46 1
    52   22   47 1
    53   22   48 1
    54   22   49 1
    55   24   50 1
    56   24   51 1
    57   27   52 1
@<TRIPOS>PROPERTY_DATA
  Total_Score	| 4.9743
  Crash		| -5.8149
  Polar		| 2.8781

@<TRIPOS>MOLECULE
ligand_hydrophobic27_001
   52    57     0     0     0
SMALL
USER_CHARGES

@<TRIPOS>ATOM
1    C1      -27.0476  -11.2866   28.0957  C.ar  1 <0>        -0.0561
2    C2      -27.6819  -10.0784   27.7185  C.ar  1 <0>        -0.0375
3    C3      -28.8093  -12.5840   26.9858  C.ar  1 <0>        -0.0486
4    C4      -29.4315  -11.3799   26.6236  C.ar  1 <0>         0.0035
5    C5      -27.6297  -12.5446   27.7762  C.ar  1 <0>        -0.0405
6    C6      -30.6358  -11.0984   25.9879  C.2   1 <0>        -0.0159
7    C7      -28.8932  -10.1462   27.0096  C.ar  1 <0>         0.0470
8    C8      -30.7654   -9.7051   26.0191  C.2   1 <0>         0.0343
9    C9      -34.2480  -11.9871   25.1489  C.2   1 <0>         0.3223
10   C10     -31.7283  -12.0237   25.5694  C.3   1 <0>         0.0005
11   C11     -31.9692   -9.0202   25.5444  C.3   1 <0>         0.0374
12   C12     -25.8382  -16.4117   28.1139  C.3   1 <0>        -0.0444
13   C13     -26.8537  -13.9996   29.6602  C.3   1 <0>        -0.0401
14   C14     -25.4184  -14.1085   27.9306  C.3   1 <0>        -0.0379
15   C15     -28.2019  -14.7189   29.1733  C.3   1 <0>        -0.0376
16   C16     -32.9779  -11.2534   24.9972  C.3   1 <0>         0.1101
17   C17     -26.9678  -15.7706   29.0035  C.3   1 <0>        -0.0344
18   C18     -24.9112  -15.4813   28.7737  C.3   1 <0>        -0.0111
19   C19     -27.1533  -15.6241   30.3160  C.3   1 <0>        -0.0085
20   C20     -27.0622  -13.8238   28.2784  C.3   1 <0>        -0.0032
21   C21     -25.4794  -15.9829   30.2943  C.3   1 <0>         0.0692
22   C22     -24.6816  -15.3381   31.4807  C.3   1 <0>        -0.0355
23   N1      -29.7128   -9.1500   26.6551  N.2   1 <0>        -0.3567
24   N2      -33.1349   -9.9387   25.6824  N.4   1 <0>        -0.2984
25   O1      -34.8899  -12.4936   24.0633  O.co2 1 <0>        -0.4795
26   O2      -34.8915  -12.0409   26.3540  O.co2 1 <0>        -0.2492
27   O3      -25.3208  -17.3870   30.5970  O.3   1 <0>        -0.3883
28   H1      -26.1921  -11.2387   28.6635  H     1 <0>         0.0621
29   H2      -27.2861   -9.1722   27.9928  H     1 <0>         0.0638
30   H3      -29.2401  -13.4742   26.7267  H     1 <0>         0.0627
31   H4      -31.3408  -12.7044   24.7978  H     1 <0>         0.0334
32   H5      -32.0347  -12.6155   26.4504  H     1 <0>         0.0334
33   H6      -32.1363   -8.1225   26.1416  H     1 <0>         0.0488
34   H7      -31.8273   -8.7279   24.5009  H     1 <0>         0.0488
35   H8      -25.5915  -17.4685   28.2635  H     1 <0>         0.0272
36   H9      -26.0295  -16.2915   27.0378  H     1 <0>         0.0272
37   H10     -27.3128  -13.1683   30.3678  H     1 <0>         0.0277
38   H11     -25.8950  -13.5695   30.0464  H     1 <0>         0.0277
39   H12     -24.7743  -13.2560   28.2086  H     1 <0>         0.0277
40   H13     -25.2834  -14.2042   26.8432  H     1 <0>         0.0277
41   H14     -29.0023  -15.1477   28.4593  H     1 <0>         0.0277
42   H15     -29.0601  -14.1977   29.7352  H     1 <0>         0.0277
43   H16     -32.8018  -11.0570   23.9315  H     1 <0>         0.0579
44   H17     -27.5738  -16.7577   28.8246  H     1 <0>         0.0305
45   H18     -23.8651  -15.7417   28.5744  H     1 <0>         0.0329
46   H19     -27.7207  -16.3946   30.8566  H     1 <0>         0.0331
47   H20     -25.3451  -15.2337   32.3445  H     1 <0>         0.0257
48   H21     -24.2802  -14.3613   31.2209  H     1 <0>         0.0257
49   H22     -23.8268  -15.9635   31.7725  H     1 <0>         0.0257
50   H23     -33.2501  -10.1303   26.6827  H     1 <0>         0.1231
51   H24     -33.9594   -9.4811   25.3124  H     1 <0>         0.0000
52   H25     -25.8581  -17.5479   31.4001  H     1 <0>         0.2102
@<TRIPOS>BOND
     1    1    2 ar
     2    1    5 ar
     3    2    7 ar
     4    3    4 ar
     5    3    5 ar
     6    4    6 1
     7    4    7 ar
     8    5   20 1
     9    6    8 2
    10    6   10 1
    11    7   23 1
    12    8   11 1
    13    8   23 1
    14    9   16 1
    15    9   25 1
    16    9   26 2
    17   10   16 1
    18   11   24 1
    19   12   17 1
    20   12   18 1
    21   13   17 1
    22   13   20 1
    23   14   18 1
    24   14   20 1
    25   15   19 1
    26   15   20 1
    27   16   24 1
    28   17   19 1
    29   18   21 1
    30   19   21 1
    31   21   22 1
    32   21   27 1
    33    1   28 1
    34    2   29 1
    35    3   30 1
    36   10   31 1
    37   10   32 1
    38   11   33 1
    39   11   34 1
    40   12   35 1
    41   12   36 1
    42   13   37 1
    43   13   38 1
    44   14   39 1
    45   14   40 1
    46   15   41 1
    47   15   42 1
    48   16   43 1
    49   17   44 1
    50   18   45 1
    51   19   46 1
    52   22   47 1
    53   22   48 1
    54   22   49 1
    55   24   50 1
    56   24   51 1
    57   27   52 1
@<TRIPOS>PROPERTY_DATA
  Total_Score	| 4.9277
  Crash		| -6.3151
  Polar		| 2.8892

@<TRIPOS>MOLECULE
ligand_hydrophobic27_002
   52    57     0     0     0
SMALL
USER_CHARGES

@<TRIPOS>ATOM
1    C1      -27.0314  -11.2606   28.0895  C.ar  1 <0>        -0.0561
2    C2      -27.6884  -10.0496   27.7875  C.ar  1 <0>        -0.0375
3    C3      -28.7026  -12.5231   26.8521  C.ar  1 <0>        -0.0486
4    C4      -29.3911  -11.3264   26.6074  C.ar  1 <0>         0.0035
5    C5      -27.5217  -12.5149   27.6313  C.ar  1 <0>        -0.0405
6    C6      -30.6073  -11.0533   26.0051  C.2   1 <0>        -0.0159
7    C7      -28.8865  -10.1062   27.0606  C.ar  1 <0>         0.0470
8    C8      -30.7650   -9.6637   26.0614  C.2   1 <0>         0.0343
9    C9      -34.1527  -12.0509   25.1514  C.2   1 <0>         0.3223
10   C10     -31.6578  -11.9956   25.5547  C.3   1 <0>         0.0005
11   C11     -31.9766   -8.9906   25.5717  C.3   1 <0>         0.0374
12   C12     -25.1364  -16.1133   27.7011  C.3   1 <0>        -0.0444
13   C13     -26.8554  -14.2035   29.3205  C.3   1 <0>        -0.0401
14   C14     -25.1424  -13.7843   27.9213  C.3   1 <0>        -0.0379
15   C15     -27.9174  -15.0285   28.4638  C.3   1 <0>        -0.0376
16   C16     -32.9145  -11.2556   24.9933  C.3   1 <0>         0.1101
17   C17     -26.5063  -15.8304   28.4166  C.3   1 <0>        -0.0344
18   C18     -24.5433  -15.1791   28.6574  C.3   1 <0>        -0.0111
19   C19     -26.9478  -15.9436   29.6612  C.3   1 <0>        -0.0085
20   C20     -26.8443  -13.8069   27.9642  C.3   1 <0>        -0.0032
21   C21     -25.2660  -16.0210   29.9338  C.3   1 <0>         0.0692
22   C22     -24.8452  -15.4676   31.3362  C.3   1 <0>        -0.0355
23   N1      -29.7426   -9.1172   26.7434  N.2   1 <0>        -0.3567
24   N2      -33.1188   -9.9394   25.6583  N.4   1 <0>        -0.2984
25   O1      -34.7751  -12.1122   26.3509  O.co2 1 <0>        -0.4795
26   O2      -34.8751  -12.4261   24.0723  O.co2 1 <0>        -0.2492
27   O3      -24.8899  -17.4159   30.0692  O.3   1 <0>        -0.3883
28   H1      -26.1941  -11.2072   28.6704  H     1 <0>         0.0621
29   H2      -27.3209   -9.1517   28.1086  H     1 <0>         0.0638
30   H3      -29.0918  -13.3979   26.4882  H     1 <0>         0.0627
31   H4      -31.2449  -12.6619   24.7958  H     1 <0>         0.0334
32   H5      -31.9281  -12.6005   26.4219  H     1 <0>         0.0334
33   H6      -32.1800   -8.1156   26.1826  H     1 <0>         0.0488
34   H7      -31.8237   -8.6722   24.5431  H     1 <0>         0.0488
35   H8      -24.7034  -17.1224   27.7442  H     1 <0>         0.0272
36   H9      -25.1405  -15.8511   26.6354  H     1 <0>         0.0272
37   H10     -27.5770  -13.6044   30.0400  H     1 <0>         0.0277
38   H11     -26.0846  -13.7009   29.9554  H     1 <0>         0.0277
39   H12     -24.7133  -12.9165   28.4311  H     1 <0>         0.0277
40   H13     -24.8072  -13.6739   26.8846  H     1 <0>         0.0277
41   H14     -28.4648  -15.4430   27.5314  H     1 <0>         0.0277
42   H15     -28.9509  -14.7648   28.8929  H     1 <0>         0.0277
43   H16     -32.7564  -11.0774   23.9236  H     1 <0>         0.0579
44   H17     -26.8700  -16.8553   27.9791  H     1 <0>         0.0305
45   H18     -23.4575  -15.2440   28.6461  H     1 <0>         0.0329
46   H19     -27.4514  -16.8771   29.9665  H     1 <0>         0.0331
47   H20     -25.6710  -15.5362   32.0438  H     1 <0>         0.0257
48   H21     -24.5204  -14.4304   31.2957  H     1 <0>         0.0257
49   H22     -24.0034  -16.0151   31.7715  H     1 <0>         0.0257
50   H23     -33.2649  -10.1253   26.6489  H     1 <0>         0.1231
51   H24     -33.9545   -9.4998   25.2824  H     1 <0>         0.0000
52   H25     -23.9148  -17.4376   30.0030  H     1 <0>         0.2102
@<TRIPOS>BOND
     1    1    2 ar
     2    1    5 ar
     3    2    7 ar
     4    3    4 ar
     5    3    5 ar
     6    4    6 1
     7    4    7 ar
     8    5   20 1
     9    6    8 2
    10    6   10 1
    11    7   23 1
    12    8   11 1
    13    8   23 1
    14    9   16 1
    15    9   25 1
    16    9   26 2
    17   10   16 1
    18   11   24 1
    19   12   17 1
    20   12   18 1
    21   13   17 1
    22   13   20 1
    23   14   18 1
    24   14   20 1
    25   15   19 1
    26   15   20 1
    27   16   24 1
    28   17   19 1
    29   18   21 1
    30   19   21 1
    31   21   22 1
    32   21   27 1
    33    1   28 1
    34    2   29 1
    35    3   30 1
    36   10   31 1
    37   10   32 1
    38   11   33 1
    39   11   34 1
    40   12   35 1
    41   12   36 1
    42   13   37 1
    43   13   38 1
    44   14   39 1
    45   14   40 1
    46   15   41 1
    47   15   42 1
    48   16   43 1
    49   17   44 1
    50   18   45 1
    51   19   46 1
    52   22   47 1
    53   22   48 1
    54   22   49 1
    55   24   50 1
    56   24   51 1
    57   27   52 1
@<TRIPOS>PROPERTY_DATA
  Total_Score	| 4.7661
  Crash		| -5.9663
  Polar		| 2.7278

@<TRIPOS>MOLECULE
ligand_hydrophobic31_000
   43    45     0     0     0
SMALL
USER_CHARGES

@<TRIPOS>ATOM
1    C1      -28.8890  -15.8745   27.5802  C.ar  1 <0>        -0.0566
2    C2      -29.7605  -15.8216   26.4733  C.ar  1 <0>        -0.0375
3    C3      -29.1330  -13.4747   27.9372  C.ar  1 <0>        -0.0491
4    C4      -30.0134  -13.4291   26.8405  C.ar  1 <0>         0.0035
5    C5      -30.7448  -12.4048   26.2534  C.2   1 <0>        -0.0159
6    C6      -28.5411  -14.7046   28.3116  C.ar  1 <0>        -0.0454
7    C7      -30.3119  -14.5863   26.1172  C.ar  1 <0>         0.0470
8    C8      -31.4338  -12.9867   25.1922  C.2   1 <0>         0.0343
9    C9      -31.8160   -8.7678   25.8072  C.2   1 <0>         0.3223
10   C10     -30.8018  -10.9655   26.5758  C.3   1 <0>         0.0005
11   C11     -32.3404  -12.2279   24.3199  C.3   1 <0>         0.0374
12   C12     -31.9893  -10.2415   25.8531  C.3   1 <0>         0.1101
13   C13     -25.6942  -15.8544   30.6929  C.3   1 <0>        -0.0504
14   C14     -25.8244  -16.1389   28.1992  C.3   1 <0>        -0.0504
15   C15     -25.0177  -13.2490   27.4857  C.3   1 <0>        -0.0176
16   C16     -27.6903  -14.8238   29.5333  C.3   1 <0>        -0.0135
17   C17     -26.1577  -15.1606   29.3715  C.3   1 <0>         0.0147
18   N1      -31.1588  -14.3019   25.1117  N.2   1 <0>        -0.3567
19   N2      -32.1663  -10.7588   24.4682  N.4   1 <0>        -0.2984
20   O1      -32.6647   -8.0170   25.0702  O.co2 1 <0>        -0.4795
21   O2      -31.1292   -8.1249   26.7809  O.co2 1 <0>        -0.2492
22   S1      -25.1483  -13.6418   29.2445  S.3   1 <0>        -0.1576
23   H1      -28.5274  -16.7812   27.8689  H     1 <0>         0.0621
24   H2      -29.9932  -16.6735   25.9539  H     1 <0>         0.0638
25   H3      -28.9388  -12.6192   28.4592  H     1 <0>         0.0627
26   H4      -30.9042  -10.8357   27.6566  H     1 <0>         0.0334
27   H5      -29.8450  -10.5368   26.2685  H     1 <0>         0.0334
28   H6      -32.1331  -12.4893   23.2820  H     1 <0>         0.0488
29   H7      -33.3720  -12.4999   24.5504  H     1 <0>         0.0488
30   H8      -32.9105  -10.4454   26.4060  H     1 <0>         0.0579
31   H9      -25.9272  -15.2312   31.5598  H     1 <0>         0.0243
32   H10     -26.2091  -16.8133   30.8225  H     1 <0>         0.0243
33   H11     -24.6188  -16.0544   30.6924  H     1 <0>         0.0243
34   H12     -26.1630  -15.7448   27.2348  H     1 <0>         0.0243
35   H13     -26.3040  -17.1102   28.3604  H     1 <0>         0.0243
36   H14     -24.7467  -16.3264   28.1337  H     1 <0>         0.0243
37   H15     -24.5308  -12.2751   27.3880  H     1 <0>         0.0341
38   H16     -26.0015  -13.1948   27.0281  H     1 <0>         0.0341
39   H17     -24.4092  -13.9936   26.9707  H     1 <0>         0.0341
40   H18     -28.1722  -15.5894   30.1527  H     1 <0>         0.0326
41   H19     -27.7708  -13.9053   30.1220  H     1 <0>         0.0326
42   H20     -31.3384  -10.4886   23.9374  H     1 <0>         0.1231
43   H21     -32.9828  -10.3136   24.0404  H     1 <0>         0.0000
@<TRIPOS>BOND
     1    1    2 ar
     2    1    6 ar
     3    2    7 ar
     4    3    4 ar
     5    3    6 ar
     6    4    5 1
     7    4    7 ar
     8    5    8 2
     9    5   10 1
    10    6   16 1
    11    7   18 1
    12    8   11 1
    13    8   18 1
    14    9   12 1
    15    9   20 1
    16    9   21 2
    17   10   12 1
    18   11   19 1
    19   12   19 1
    20   13   17 1
    21   14   17 1
    22   15   22 1
    23   16   17 1
    24   17   22 1
    25    1   23 1
    26    2   24 1
    27    3   25 1
    28   10   26 1
    29   10   27 1
    30   11   28 1
    31   11   29 1
    32   12   30 1
    33   13   31 1
    34   13   32 1
    35   13   33 1
    36   14   34 1
    37   14   35 1
    38   14   36 1
    39   15   37 1
    40   15   38 1
    41   15   39 1
    42   16   40 1
    43   16   41 1
    44   19   42 1
    45   19   43 1
@<TRIPOS>PROPERTY_DATA
  Total_Score	| 9.0325
  Crash		| -2.3558
  Polar		| 4.6153

@<TRIPOS>MOLECULE
ligand_hydrophobic31_001
   43    45     0     0     0
SMALL
USER_CHARGES

@<TRIPOS>ATOM
1    C1      -28.7311  -15.8990   27.6729  C.ar  1 <0>        -0.0566
2    C2      -29.6014  -15.8449   26.5688  C.ar  1 <0>        -0.0375
3    C3      -28.9887  -13.4840   28.0351  C.ar  1 <0>        -0.0491
4    C4      -29.8599  -13.4456   26.9325  C.ar  1 <0>         0.0035
5    C5      -30.5934  -12.4250   26.3428  C.2   1 <0>        -0.0159
6    C6      -28.4091  -14.7256   28.4130  C.ar  1 <0>        -0.0454
7    C7      -30.1385  -14.6023   26.1972  C.ar  1 <0>         0.0470
8    C8      -31.2834  -13.0266   25.2891  C.2   1 <0>         0.0343
9    C9      -31.8424   -8.8416   25.9603  C.2   1 <0>         0.3223
10   C10     -30.6860  -10.9824   26.6498  C.3   1 <0>         0.0005
11   C11     -32.2481  -12.3018   24.4508  C.3   1 <0>         0.0374
12   C12     -31.9485  -10.3205   26.0050  C.3   1 <0>         0.1101
13   C13     -25.6179  -15.9577   28.2191  C.3   1 <0>        -0.0504
14   C14     -25.3408  -13.5721   29.0894  C.3   1 <0>        -0.0504
15   C15     -24.9839  -17.2996   30.7148  C.3   1 <0>        -0.0176
16   C16     -27.5412  -14.8318   29.6281  C.3   1 <0>        -0.0135
17   C17     -25.9841  -14.9792   29.3876  C.3   1 <0>         0.0147
18   N1      -30.9952  -14.3390   25.2013  N.2   1 <0>        -0.3567
19   N2      -32.1755  -10.8307   24.6286  N.4   1 <0>        -0.2984
20   O1      -31.2432   -8.1751   26.9763  O.co2 1 <0>        -0.4795
21   O2      -32.5948   -8.1109   25.1008  O.co2 1 <0>        -0.2492
22   S1      -25.2120  -15.5223   30.9637  S.3   1 <0>        -0.1576
23   H1      -28.3343  -16.7997   27.9513  H     1 <0>         0.0621
24   H2      -29.8197  -16.6949   26.0495  H     1 <0>         0.0638
25   H3      -28.7853  -12.6321   28.5621  H     1 <0>         0.0627
26   H4      -30.7171  -10.8596   27.7363  H     1 <0>         0.0334
27   H5      -29.7669  -10.5138   26.2784  H     1 <0>         0.0334
28   H6      -32.0429  -12.5118   23.3994  H     1 <0>         0.0488
29   H7      -33.2651  -12.6339   24.6796  H     1 <0>         0.0488
30   H8      -32.8217  -10.5672   26.6172  H     1 <0>         0.0579
31   H9      -26.1806  -16.8993   28.3075  H     1 <0>         0.0243
32   H10     -25.8752  -15.4962   27.2564  H     1 <0>         0.0243
33   H11     -24.5418  -16.2000   28.2287  H     1 <0>         0.0243
34   H12     -25.5426  -12.8822   29.9140  H     1 <0>         0.0243
35   H13     -25.7568  -13.1382   28.1740  H     1 <0>         0.0243
36   H14     -24.2570  -13.6553   28.9640  H     1 <0>         0.0243
37   H15     -24.6588  -17.7363   31.6610  H     1 <0>         0.0341
38   H16     -24.2071  -17.4651   29.9587  H     1 <0>         0.0341
39   H17     -25.9109  -17.7850   30.3996  H     1 <0>         0.0341
40   H18     -27.9016  -15.6924   30.2053  H     1 <0>         0.0326
41   H19     -27.7230  -13.9615   30.2787  H     1 <0>         0.0326
42   H20     -31.4086  -10.4855   24.0596  H     1 <0>         0.1231
43   H21     -33.0528  -10.4280   24.2757  H     1 <0>         0.0000
@<TRIPOS>BOND
     1    1    2 ar
     2    1    6 ar
     3    2    7 ar
     4    3    4 ar
     5    3    6 ar
     6    4    5 1
     7    4    7 ar
     8    5    8 2
     9    5   10 1
    10    6   16 1
    11    7   18 1
    12    8   11 1
    13    8   18 1
    14    9   12 1
    15    9   20 1
    16    9   21 2
    17   10   12 1
    18   11   19 1
    19   12   19 1
    20   13   17 1
    21   14   17 1
    22   15   22 1
    23   16   17 1
    24   17   22 1
    25    1   23 1
    26    2   24 1
    27    3   25 1
    28   10   26 1
    29   10   27 1
    30   11   28 1
    31   11   29 1
    32   12   30 1
    33   13   31 1
    34   13   32 1
    35   13   33 1
    36   14   34 1
    37   14   35 1
    38   14   36 1
    39   15   37 1
    40   15   38 1
    41   15   39 1
    42   16   40 1
    43   16   41 1
    44   19   42 1
    45   19   43 1
@<TRIPOS>PROPERTY_DATA
  Total_Score	| 8.9424
  Crash		| -2.0921
  Polar		| 4.6619

@<TRIPOS>MOLECULE
ligand_hydrophobic31_002
   43    45     0     0     0
SMALL
USER_CHARGES

@<TRIPOS>ATOM
1    C1      -28.7872  -15.9248   27.6991  C.ar  1 <0>        -0.0566
2    C2      -29.6542  -15.8677   26.5971  C.ar  1 <0>        -0.0375
3    C3      -28.9953  -13.5103   28.0371  C.ar  1 <0>        -0.0491
4    C4      -29.8816  -13.4617   26.9404  C.ar  1 <0>         0.0035
5    C5      -30.6174  -12.4414   26.3422  C.2   1 <0>        -0.0159
6    C6      -28.4429  -14.7608   28.4338  C.ar  1 <0>        -0.0454
7    C7      -30.1944  -14.6263   26.2341  C.ar  1 <0>         0.0470
8    C8      -31.3229  -13.0342   25.2940  C.2   1 <0>         0.0343
9    C9      -31.8391   -8.8456   25.9415  C.2   1 <0>         0.3223
10   C10     -30.6993  -10.9961   26.6474  C.3   1 <0>         0.0005
11   C11     -32.2464  -12.3003   24.4238  C.3   1 <0>         0.0374
12   C12     -31.9485  -10.3222   25.9813  C.3   1 <0>         0.1101
13   C13     -25.6782  -15.9965   28.2361  C.3   1 <0>        -0.0504
14   C14     -25.3742  -13.6388   29.1048  C.3   1 <0>        -0.0504
15   C15     -24.9100  -17.3585   30.7233  C.3   1 <0>        -0.0176
16   C16     -27.5679  -14.8843   29.6474  C.3   1 <0>        -0.0135
17   C17     -26.0159  -15.0313   29.4196  C.3   1 <0>         0.0147
18   N1      -31.0393  -14.3500   25.2242  N.2   1 <0>        -0.3567
19   N2      -32.1585  -10.8311   24.5980  N.4   1 <0>        -0.2984
20   O1      -32.6160   -8.1120   25.1057  O.co2 1 <0>        -0.4795
21   O2      -31.2434   -8.1842   26.9592  O.co2 1 <0>        -0.2492
22   S1      -25.2603  -15.5964   30.9902  S.3   1 <0>        -0.1576
23   H1      -28.4184  -16.8318   27.9782  H     1 <0>         0.0621
24   H2      -29.9081  -16.7162   26.0794  H     1 <0>         0.0638
25   H3      -28.7815  -12.6569   28.5515  H     1 <0>         0.0627
26   H4      -30.7578  -10.8590   27.7324  H     1 <0>         0.0334
27   H5      -29.7746  -10.5282   26.2946  H     1 <0>         0.0334
28   H6      -32.0071  -12.5328   23.3837  H     1 <0>         0.0488
29   H7      -33.2657  -12.6272   24.6258  H     1 <0>         0.0488
30   H8      -32.8354  -10.5728   26.5659  H     1 <0>         0.0579
31   H9      -26.2323  -16.9369   28.3316  H     1 <0>         0.0243
32   H10     -25.9613  -15.5281   27.2768  H     1 <0>         0.0243
33   H11     -24.6001  -16.2212   28.2101  H     1 <0>         0.0243
34   H12     -25.5603  -12.9317   29.9258  H     1 <0>         0.0243
35   H13     -25.7960  -13.2165   28.1884  H     1 <0>         0.0243
36   H14     -24.2935  -13.7367   28.9707  H     1 <0>         0.0243
37   H15     -24.5437  -17.7912   31.6696  H     1 <0>         0.0341
38   H16     -24.1294  -17.4753   29.9627  H     1 <0>         0.0341
39   H17     -25.8156  -17.9003   30.4148  H     1 <0>         0.0341
40   H18     -27.9225  -15.7490   30.2237  H     1 <0>         0.0326
41   H19     -27.7493  -14.0177   30.2944  H     1 <0>         0.0326
42   H20     -31.3760  -10.4994   24.0321  H     1 <0>         0.1231
43   H21     -33.0200  -10.4301   24.2208  H     1 <0>         0.0000
@<TRIPOS>BOND
     1    1    2 ar
     2    1    6 ar
     3    2    7 ar
     4    3    4 ar
     5    3    6 ar
     6    4    5 1
     7    4    7 ar
     8    5    8 2
     9    5   10 1
    10    6   16 1
    11    7   18 1
    12    8   11 1
    13    8   18 1
    14    9   12 1
    15    9   20 1
    16    9   21 2
    17   10   12 1
    18   11   19 1
    19   12   19 1
    20   13   17 1
    21   14   17 1
    22   15   22 1
    23   16   17 1
    24   17   22 1
    25    1   23 1
    26    2   24 1
    27    3   25 1
    28   10   26 1
    29   10   27 1
    30   11   28 1
    31   11   29 1
    32   12   30 1
    33   13   31 1
    34   13   32 1
    35   13   33 1
    36   14   34 1
    37   14   35 1
    38   14   36 1
    39   15   37 1
    40   15   38 1
    41   15   39 1
    42   16   40 1
    43   16   41 1
    44   19   42 1
    45   19   43 1
@<TRIPOS>PROPERTY_DATA
  Total_Score	| 8.9195
  Crash		| -2.0606
  Polar		| 4.6023

@<TRIPOS>MOLECULE
ligand_uncharged32_000
   37    39     0     0     0
SMALL
USER_CHARGES

@<TRIPOS>ATOM
1    C1      -30.3151  -15.9071   25.8714  C.ar  1 <0>        -0.0360
2    C2      -29.3973  -16.1348   26.9113  C.ar  1 <0>        -0.0385
3    C3      -29.3927  -13.7590   27.4720  C.ar  1 <0>        -0.0310
4    C4      -30.3302  -13.5413   26.4433  C.ar  1 <0>         0.0049
5    C5      -30.9769  -12.4100   25.9686  C.2   1 <0>        -0.0158
6    C6      -30.7760  -14.6023   25.6552  C.ar  1 <0>         0.0471
7    C7      -28.9416  -15.0732   27.7444  C.ar  1 <0>         0.0341
8    C8      -31.7920  -12.8430   24.9239  C.2   1 <0>         0.0343
9    C9      -31.9447   -8.7401   26.0992  C.2   1 <0>         0.3223
10   C10     -27.7202  -14.8252   29.8500  C.2   1 <0>         0.2169
11   C11     -30.8810  -10.9996   26.3947  C.3   1 <0>         0.0005
12   C12     -32.6988  -11.9408   24.1942  C.3   1 <0>         0.0374
13   C13     -32.1514  -10.2014   25.9632  C.3   1 <0>         0.1101
14   C14     -25.3389  -15.3022   30.4061  C.3   1 <0>        -0.0570
15   C15     -26.8268  -15.5021   30.7750  C.3   1 <0>         0.0215
16   N1      -31.6406  -14.1670   24.7229  N.2   1 <0>        -0.3567
17   N2      -28.0706  -15.4437   28.7325  N.am  1 <0>        -0.2855
18   N3      -32.5491  -10.5118   24.5608  N.4   1 <0>        -0.2984
19   O1      -32.4713   -7.8605   25.2212  O.co2 1 <0>        -0.4795
20   O2      -31.2335   -8.2389   27.1381  O.co2 1 <0>        -0.2492
21   O3      -28.1826  -13.7319   30.1844  O.2   1 <0>        -0.2755
22   H1      -30.6564  -16.6886   25.2968  H     1 <0>         0.0639
23   H2      -29.0710  -17.0899   27.0714  H     1 <0>         0.0637
24   H3      -29.0753  -12.9574   28.0177  H     1 <0>         0.0643
25   H4      -30.7756  -10.9528   27.4828  H     1 <0>         0.0334
26   H5      -29.9912  -10.5655   25.9331  H     1 <0>         0.0334
27   H6      -32.4847  -12.0376   23.1292  H     1 <0>         0.0488
28   H7      -33.7329  -12.2365   24.3782  H     1 <0>         0.0488
29   H8      -32.9842  -10.4895   26.6109  H     1 <0>         0.0579
30   H9      -25.1587  -15.7020   29.4063  H     1 <0>         0.0234
31   H10     -24.7085  -15.8344   31.1212  H     1 <0>         0.0234
32   H11     -25.0757  -14.2426   30.4268  H     1 <0>         0.0234
33   H12     -26.9897  -15.1436   31.7976  H     1 <0>         0.0356
34   H13     -27.0518  -16.5768   30.7681  H     1 <0>         0.0356
35   H14     -27.7172  -16.3478   28.6380  H     1 <0>         0.1548
36   H15     -31.8565  -10.0966   23.9349  H     1 <0>         0.1231
37   H16     -33.4579  -10.0744   24.3898  H     1 <0>         0.0000
@<TRIPOS>BOND
     1    1    2 ar
     2    1    6 ar
     3    2    7 ar
     4    3    4 ar
     5    3    7 ar
     6    4    5 1
     7    4    6 ar
     8    5    8 2
     9    5   11 1
    10    6   16 1
    11    7   17 1
    12    8   12 1
    13    8   16 1
    14    9   13 1
    15    9   19 1
    16    9   20 2
    17   10   15 1
    18   10   17 am
    19   10   21 2
    20   11   13 1
    21   12   18 1
    22   13   18 1
    23   14   15 1
    24    1   22 1
    25    2   23 1
    26    3   24 1
    27   11   25 1
    28   11   26 1
    29   12   27 1
    30   12   28 1
    31   13   29 1
    32   14   30 1
    33   14   31 1
    34   14   32 1
    35   15   33 1
    36   15   34 1
    37   17   35 1
    38   18   36 1
    39   18   37 1
@<TRIPOS>PROPERTY_DATA
  Total_Score	| 9.4879
  Crash		| -2.3023
  Polar		| 5.4730

@<TRIPOS>MOLECULE
ligand_uncharged32_001
   37    39     0     0     0
SMALL
USER_CHARGES

@<TRIPOS>ATOM
1    C1      -29.7198  -15.8961   26.2307  C.ar  1 <0>        -0.0360
2    C2      -28.7772  -16.0185   27.2707  C.ar  1 <0>        -0.0385
3    C3      -28.9682  -13.6389   27.7704  C.ar  1 <0>        -0.0310
4    C4      -29.9179  -13.5317   26.7329  C.ar  1 <0>         0.0049
5    C5      -30.6806  -12.4745   26.2482  C.2   1 <0>        -0.0158
6    C6      -30.2850  -14.6446   25.9779  C.ar  1 <0>         0.0471
7    C7      -28.3830  -14.8972   28.0557  C.ar  1 <0>         0.0341
8    C8      -31.4748  -13.0082   25.2349  C.2   1 <0>         0.0343
9    C9      -31.7279   -8.8139   26.0309  C.2   1 <0>         0.3223
10   C10     -26.7398  -15.9087   29.6062  C.2   1 <0>         0.2169
11   C11     -30.6968  -11.0506   26.6388  C.3   1 <0>         0.0005
12   C12     -32.5154  -12.2296   24.5502  C.3   1 <0>         0.0374
13   C13     -31.9490  -10.2836   26.0946  C.3   1 <0>         0.1101
14   C14     -24.7675  -16.7077   31.0035  C.3   1 <0>        -0.0570
15   C15     -25.7771  -15.5871   30.6460  C.3   1 <0>         0.0215
16   N1      -31.2015  -14.3161   25.0604  N.2   1 <0>        -0.3567
17   N2      -27.4482  -14.9182   29.0657  N.am  1 <0>        -0.2855
18   N3      -32.3836  -10.7654   24.7570  N.4   1 <0>        -0.2984
19   O1      -30.9379   -8.1925   26.9370  O.co2 1 <0>        -0.4795
20   O2      -32.3755   -8.0532   25.1233  O.co2 1 <0>        -0.2492
21   O3      -26.9155  -17.0871   29.3126  O.2   1 <0>        -0.2755
22   H1      -30.0060  -16.7115   25.6865  H     1 <0>         0.0639
23   H2      -28.3957  -16.9389   27.4352  H     1 <0>         0.0637
24   H3      -28.7184  -12.8104   28.3110  H     1 <0>         0.0643
25   H4      -30.6793  -10.9691   27.7288  H     1 <0>         0.0334
26   H5      -29.7774  -10.6062   26.2522  H     1 <0>         0.0334
27   H6      -32.4466  -12.4231   23.4799  H     1 <0>         0.0488
28   H7      -33.4935  -12.5629   24.9049  H     1 <0>         0.0488
29   H8      -32.7766  -10.4654   26.7814  H     1 <0>         0.0579
30   H9      -25.2820  -17.6085   31.3478  H     1 <0>         0.0234
31   H10     -24.1034  -16.3650   31.7975  H     1 <0>         0.0234
32   H11     -24.1629  -16.9642   30.1297  H     1 <0>         0.0234
33   H12     -25.1814  -14.7250   30.3387  H     1 <0>         0.0356
34   H13     -26.3301  -15.2982   31.5400  H     1 <0>         0.0356
35   H14     -27.2363  -14.0388   29.4198  H     1 <0>         0.1548
36   H15     -31.7104  -10.4155   24.0739  H     1 <0>         0.1231
37   H16     -33.2984  -10.3508   24.5454  H     1 <0>         0.0000
@<TRIPOS>BOND
     1    1    2 ar
     2    1    6 ar
     3    2    7 ar
     4    3    4 ar
     5    3    7 ar
     6    4    5 1
     7    4    6 ar
     8    5    8 2
     9    5   11 1
    10    6   16 1
    11    7   17 1
    12    8   12 1
    13    8   16 1
    14    9   13 1
    15    9   19 1
    16    9   20 2
    17   10   15 1
    18   10   17 am
    19   10   21 2
    20   11   13 1
    21   12   18 1
    22   13   18 1
    23   14   15 1
    24    1   22 1
    25    2   23 1
    26    3   24 1
    27   11   25 1
    28   11   26 1
    29   12   27 1
    30   12   28 1
    31   13   29 1
    32   14   30 1
    33   14   31 1
    34   14   32 1
    35   15   33 1
    36   15   34 1
    37   17   35 1
    38   18   36 1
    39   18   37 1
@<TRIPOS>PROPERTY_DATA
  Total_Score	| 8.9500
  Crash		| -1.3087
  Polar		| 5.0238

@<TRIPOS>MOLECULE
ligand_uncharged32_002
   37    39     0     0     0
SMALL
USER_CHARGES

@<TRIPOS>ATOM
1    C1      -29.4948  -15.9231   26.3022  C.ar  1 <0>        -0.0360
2    C2      -28.5201  -16.0082   27.3070  C.ar  1 <0>        -0.0385
3    C3      -28.8268  -13.6525   27.8668  C.ar  1 <0>        -0.0310
4    C4      -29.7973  -13.5636   26.8502  C.ar  1 <0>         0.0049
5    C5      -30.6000  -12.5390   26.3522  C.2   1 <0>        -0.0158
6    C6      -30.1207  -14.6871   26.0872  C.ar  1 <0>         0.0471
7    C7      -28.1755  -14.8955   28.1201  C.ar  1 <0>         0.0341
8    C8      -31.3501  -13.0943   25.3195  C.2   1 <0>         0.0343
9    C9      -31.7749   -8.9110   26.0488  C.2   1 <0>         0.3223
10   C10     -26.5437  -15.9438   29.6482  C.2   1 <0>         0.2169
11   C11     -30.6515  -11.1068   26.6964  C.3   1 <0>         0.0005
12   C12     -32.3291  -12.3394   24.5239  C.3   1 <0>         0.0374
13   C13     -31.9118  -10.3897   26.0968  C.3   1 <0>         0.1101
14   C14     -24.5991  -16.8144   31.0551  C.3   1 <0>        -0.0570
15   C15     -25.5795  -15.6632   30.6996  C.3   1 <0>         0.0215
16   N1      -31.0382  -14.3926   25.1605  N.2   1 <0>        -0.3567
17   N2      -27.2310  -14.9200   29.1181  N.am  1 <0>        -0.2855
18   N3      -32.2045  -10.8746   24.7195  N.4   1 <0>        -0.2984
19   O1      -32.4995   -8.1722   25.1723  O.co2 1 <0>        -0.4795
20   O2      -31.2252   -8.2535   27.0937  O.co2 1 <0>        -0.2492
21   O3      -26.7391  -17.1087   29.3407  O.2   1 <0>        -0.2755
22   H1      -29.7391  -16.7335   25.7340  H     1 <0>         0.0639
23   H2      -28.0571  -16.9066   27.3998  H     1 <0>         0.0637
24   H3      -28.5865  -12.8254   28.4200  H     1 <0>         0.0643
25   H4      -30.6564  -10.9973   27.7821  H     1 <0>         0.0334
26   H5      -29.7382  -10.6490   26.3073  H     1 <0>         0.0334
27   H6      -32.1684  -12.5526   23.4653  H     1 <0>         0.0488
28   H7      -33.3376  -12.6590   24.7939  H     1 <0>         0.0488
29   H8      -32.7819  -10.6228   26.7191  H     1 <0>         0.0579
30   H9      -25.1298  -17.6927   31.4253  H     1 <0>         0.0234
31   H10     -23.9113  -16.4697   31.8259  H     1 <0>         0.0234
32   H11     -24.0179  -17.0991   30.1760  H     1 <0>         0.0234
33   H12     -24.9765  -14.8052   30.3934  H     1 <0>         0.0356
34   H13     -26.1390  -15.3795   31.5930  H     1 <0>         0.0356
35   H14     -27.0264  -14.0497   29.5030  H     1 <0>         0.1548
36   H15     -31.4464  -10.5523   24.1184  H     1 <0>         0.1231
37   H16     -33.0781  -10.4528   24.3937  H     1 <0>         0.0000
@<TRIPOS>BOND
     1    1    2 ar
     2    1    6 ar
     3    2    7 ar
     4    3    4 ar
     5    3    7 ar
     6    4    5 1
     7    4    6 ar
     8    5    8 2
     9    5   11 1
    10    6   16 1
    11    7   17 1
    12    8   12 1
    13    8   16 1
    14    9   13 1
    15    9   19 1
    16    9   20 2
    17   10   15 1
    18   10   17 am
    19   10   21 2
    20   11   13 1
    21   12   18 1
    22   13   18 1
    23   14   15 1
    24    1   22 1
    25    2   23 1
    26    3   24 1
    27   11   25 1
    28   11   26 1
    29   12   27 1
    30   12   28 1
    31   13   29 1
    32   14   30 1
    33   14   31 1
    34   14   32 1
    35   15   33 1
    36   15   34 1
    37   17   35 1
    38   18   36 1
    39   18   37 1
@<TRIPOS>PROPERTY_DATA
  Total_Score	| 8.7382
  Crash		| -1.3743
  Polar		| 4.9376

@<TRIPOS>MOLECULE
ligand_uncharged44_000
   46    49     0     0     0
SMALL
USER_CHARGES

@<TRIPOS>ATOM
1    C1      -29.2804  -16.0663   26.3782  C.ar  1 <0>        -0.0563
2    C2      -30.4555  -15.8538   25.6328  C.ar  1 <0>        -0.0375
3    C3      -29.2420  -13.7173   27.0401  C.ar  1 <0>        -0.0489
4    C4      -30.3873  -13.5101   26.2554  C.ar  1 <0>         0.0035
5    C5      -28.6306  -15.0021   27.0693  C.ar  1 <0>        -0.0436
6    C6      -31.1164  -12.4074   25.9434  C.2   1 <0>        -0.0159
7    C7      -30.9759  -14.5536   25.5502  C.ar  1 <0>         0.0470
8    C8      -32.1112  -12.8357   25.1329  C.cat 1 <0>         0.0343
9    C9      -31.9117   -8.6695   25.9969  C.2   1 <0>         0.3223
10   C10     -30.8924  -11.0132   26.3098  C.3   1 <0>         0.0005
11   C11     -33.1340  -11.9523   24.6125  C.3   1 <0>         0.0374
12   C12     -24.9658  -14.3314   28.4825  C.3   1 <0>        -0.0502
13   C13     -26.3212  -14.1131   27.7497  C.3   1 <0>        -0.0461
14   C14     -27.6723  -15.8254   29.2402  C.3   1 <0>        -0.0439
15   C15     -25.1140  -14.3594   30.0287  C.3   1 <0>        -0.0268
16   C16     -26.4991  -16.6066   29.9010  C.3   1 <0>        -0.0263
17   C17     -27.3519  -15.2873   27.8063  C.3   1 <0>        -0.0157
18   C18     -31.7835  -10.0413   25.4719  C.3   1 <0>         0.1101
19   C19     -25.4227  -15.7551   30.6355  C.3   1 <0>         0.0553
20   N1      -31.9774  -14.0877   24.8497  N.2   1 <0>        -0.3567
21   N2      -33.1331  -10.6485   25.3158  N.3   1 <0>        -0.2984
22   O1      -32.5185   -7.7395   25.2294  O.co2 1 <0>        -0.4795
23   O2      -31.2337   -8.2519   27.0882  O.co2 1 <0>        -0.2492
24   O3      -25.8026  -15.5785   32.0002  O.3   1 <0>        -0.3918
25   H1      -28.8904  -17.0131   26.4087  H     1 <0>         0.0621
26   H2      -30.9112  -16.6306   25.1540  H     1 <0>         0.0638
27   H3      -28.8625  -12.9253   27.5487  H     1 <0>         0.0627
28   H4      -31.1050  -10.9064   27.3780  H     1 <0>         0.0334
29   H5      -29.8412  -10.7610   26.1404  H     1 <0>         0.0334
30   H6      -32.9491  -11.7922   23.5500  H     1 <0>         0.0488
31   H7      -34.1126  -12.4158   24.7381  H     1 <0>         0.0488
32   H8      -24.4860  -15.2438   28.1220  H     1 <0>         0.0266
33   H9      -24.3129  -13.4930   28.2204  H     1 <0>         0.0266
34   H10     -26.7524  -13.2017   28.1667  H     1 <0>         0.0271
35   H11     -26.0977  -13.9062   26.6976  H     1 <0>         0.0271
36   H12     -28.5122  -16.5247   29.1729  H     1 <0>         0.0272
37   H13     -27.9913  -15.0075   29.8913  H     1 <0>         0.0272
38   H14     -24.1895  -13.9943   30.4805  H     1 <0>         0.0290
39   H15     -25.8897  -13.6528   30.3275  H     1 <0>         0.0290
40   H16     -26.9173  -17.3216   30.6146  H     1 <0>         0.0290
41   H17     -26.0018  -17.2113   29.1376  H     1 <0>         0.0290
42   H18     -26.8572  -16.1034   27.2694  H     1 <0>         0.0349
43   H19     -31.3408   -9.9394   24.4804  H     1 <0>         0.0579
44   H20     -24.5004  -16.3431   30.6475  H     1 <0>         0.0593
45   H21     -33.8072  -10.0156   24.8798  H     1 <0>         0.1231
46   H22     -24.9923  -15.2707   32.4545  H     1 <0>         0.2098
@<TRIPOS>BOND
     1    1    2 ar
     2    1    5 ar
     3    2    7 ar
     4    3    4 ar
     5    3    5 ar
     6    4    6 2
     7    4    7 ar
     8    5   17 1
     9    6    8 1
    10    6   10 1
    11    7   20 2
    12    8   11 1
    13    8   20 1
    14    9   18 1
    15    9   22 1
    16    9   23 2
    17   10   18 1
    18   11   21 1
    19   12   13 1
    20   12   15 1
    21   13   17 1
    22   14   16 1
    23   14   17 1
    24   15   19 1
    25   16   19 1
    26   18   21 1
    27   19   24 1
    28    1   25 1
    29    2   26 1
    30    3   27 1
    31   10   28 1
    32   10   29 1
    33   11   30 1
    34   11   31 1
    35   12   32 1
    36   12   33 1
    37   13   34 1
    38   13   35 1
    39   14   36 1
    40   14   37 1
    41   15   38 1
    42   15   39 1
    43   16   40 1
    44   16   41 1
    45   17   42 1
    46   18   43 1
    47   19   44 1
    48   21   45 1
    49   24   46 1
@<TRIPOS>PROPERTY_DATA
  Total_Score	| 7.5513
  Crash		| -3.9047
  Polar		| 4.0626

@<TRIPOS>MOLECULE
ligand_uncharged44_001
   46    49     0     0     0
SMALL
USER_CHARGES

@<TRIPOS>ATOM
1    C1      -29.2927  -16.1191   26.3964  C.ar  1 <0>        -0.0563
2    C2      -30.4787  -15.9295   25.6567  C.ar  1 <0>        -0.0375
3    C3      -29.2652  -13.7684   27.0220  C.ar  1 <0>        -0.0489
4    C4      -30.4116  -13.5816   26.2346  C.ar  1 <0>         0.0035
5    C5      -28.6383  -15.0404   27.0578  C.ar  1 <0>        -0.0436
6    C6      -31.1329  -12.4790   25.9094  C.2   1 <0>        -0.0159
7    C7      -31.0056  -14.6325   25.5455  C.ar  1 <0>         0.0470
8    C8      -32.1270  -12.9012   25.1020  C.cat 1 <0>         0.0343
9    C9      -31.8704   -8.7457   26.0188  C.2   1 <0>         0.3223
10   C10     -30.8984  -11.0962   26.2955  C.3   1 <0>         0.0005
11   C11     -33.1663  -12.0120   24.6149  C.3   1 <0>         0.0374
12   C12     -25.0024  -14.2411   28.5139  C.3   1 <0>        -0.0502
13   C13     -26.3487  -14.0659   27.7586  C.3   1 <0>        -0.0461
14   C14     -27.6374  -15.8945   29.1855  C.3   1 <0>        -0.0439
15   C15     -25.1723  -14.2390   30.0582  C.3   1 <0>        -0.0268
16   C16     -26.4118  -16.5678   29.8663  C.3   1 <0>        -0.0263
17   C17     -27.3368  -15.2876   27.7771  C.3   1 <0>        -0.0157
18   C18     -31.7866  -10.1118   25.4690  C.3   1 <0>         0.1101
19   C19     -25.5029  -15.6187   30.6967  C.3   1 <0>         0.0553
20   N1      -32.0049  -14.1653   24.8409  N.2   1 <0>        -0.3567
21   N2      -33.1419  -10.6990   25.3153  N.3   1 <0>        -0.2984
22   O1      -31.2282   -8.3766   27.1488  O.co2 1 <0>        -0.4795
23   O2      -32.4262   -7.7782   25.2545  O.co2 1 <0>        -0.2492
24   O3      -26.0891  -15.4121   31.9824  O.3   1 <0>        -0.3918
25   H1      -28.9031  -17.0620   26.4503  H     1 <0>         0.0621
26   H2      -30.9366  -16.7211   25.1989  H     1 <0>         0.0638
27   H3      -28.8895  -12.9668   27.5269  H     1 <0>         0.0627
28   H4      -31.1128  -11.0020   27.3635  H     1 <0>         0.0334
29   H5      -29.8465  -10.8508   26.1240  H     1 <0>         0.0334
30   H6      -33.0216  -11.8450   23.5473  H     1 <0>         0.0488
31   H7      -34.1468  -12.4648   24.7698  H     1 <0>         0.0488
32   H8      -24.4950  -15.1496   28.1779  H     1 <0>         0.0266
33   H9      -24.3590  -13.3979   28.2447  H     1 <0>         0.0266
34   H10     -26.8270  -13.1748   28.1668  H     1 <0>         0.0271
35   H11     -26.1066  -13.8413   26.7138  H     1 <0>         0.0271
36   H12     -28.3965  -16.6770   29.0716  H     1 <0>         0.0272
37   H13     -28.0660  -15.1249   29.8335  H     1 <0>         0.0272
38   H14     -24.2466  -13.8718   30.5130  H     1 <0>         0.0290
39   H15     -25.9502  -13.5175   30.3245  H     1 <0>         0.0290
40   H16     -26.7696  -17.3578   30.5323  H     1 <0>         0.0290
41   H17     -25.8022  -17.0685   29.1085  H     1 <0>         0.0290
42   H18     -26.8125  -16.0653   27.2095  H     1 <0>         0.0349
43   H19     -31.3467  -10.0116   24.4738  H     1 <0>         0.0579
44   H20     -24.5612  -16.1466   30.8735  H     1 <0>         0.0593
45   H21     -33.7993  -10.0566   24.8698  H     1 <0>         0.1231
46   H22     -26.9973  -15.0887   31.8031  H     1 <0>         0.2098
@<TRIPOS>BOND
     1    1    2 ar
     2    1    5 ar
     3    2    7 ar
     4    3    4 ar
     5    3    5 ar
     6    4    6 2
     7    4    7 ar
     8    5   17 1
     9    6    8 1
    10    6   10 1
    11    7   20 2
    12    8   11 1
    13    8   20 1
    14    9   18 1
    15    9   22 1
    16    9   23 2
    17   10   18 1
    18   11   21 1
    19   12   13 1
    20   12   15 1
    21   13   17 1
    22   14   16 1
    23   14   17 1
    24   15   19 1
    25   16   19 1
    26   18   21 1
    27   19   24 1
    28    1   25 1
    29    2   26 1
    30    3   27 1
    31   10   28 1
    32   10   29 1
    33   11   30 1
    34   11   31 1
    35   12   32 1
    36   12   33 1
    37   13   34 1
    38   13   35 1
    39   14   36 1
    40   14   37 1
    41   15   38 1
    42   15   39 1
    43   16   40 1
    44   16   41 1
    45   17   42 1
    46   18   43 1
    47   19   44 1
    48   21   45 1
    49   24   46 1
@<TRIPOS>PROPERTY_DATA
  Total_Score	| 7.4494
  Crash		| -3.8127
  Polar		| 4.0410

@<TRIPOS>MOLECULE
ligand_uncharged44_002
   46    49     0     0     0
SMALL
USER_CHARGES

@<TRIPOS>ATOM
1    C1      -29.1102  -16.0517   26.7261  C.ar  1 <0>        -0.0563
2    C2      -30.1920  -15.8680   25.8424  C.ar  1 <0>        -0.0375
3    C3      -29.0023  -13.6481   27.1400  C.ar  1 <0>        -0.0489
4    C4      -30.1167  -13.4844   26.2912  C.ar  1 <0>         0.0035
5    C5      -28.4576  -14.9487   27.3515  C.ar  1 <0>        -0.0436
6    C6      -30.8417  -12.4058   25.8906  C.2   1 <0>        -0.0159
7    C7      -30.6731  -14.5720   25.6272  C.ar  1 <0>         0.0470
8    C8      -31.7803  -12.8834   25.0407  C.cat 1 <0>         0.0343
9    C9      -31.8890   -8.7418   26.0343  C.2   1 <0>         0.3223
10   C10     -30.7383  -11.0140   26.3060  C.3   1 <0>         0.0005
11   C11     -32.8339  -12.0587   24.4794  C.3   1 <0>         0.0374
12   C12     -26.4574  -15.4410   30.7040  C.3   1 <0>        -0.0502
13   C13     -27.6303  -15.3134   29.6944  C.3   1 <0>        -0.0461
14   C14     -26.2547  -16.2229   27.6637  C.3   1 <0>        -0.0439
15   C15     -25.7292  -16.8162   30.6776  C.3   1 <0>        -0.0268
16   C16     -24.8218  -16.2367   28.2562  C.3   1 <0>        -0.0263
17   C17     -27.2274  -15.1164   28.2016  C.3   1 <0>        -0.0157
18   C18     -31.6578  -10.0784   25.4544  C.3   1 <0>         0.1101
19   C19     -24.6558  -17.0369   29.5749  C.3   1 <0>         0.0553
20   N1      -31.6225  -14.1490   24.8383  N.2   1 <0>        -0.3567
21   N2      -32.9523  -10.7682   25.2031  N.3   1 <0>        -0.2984
22   O1      -32.5039   -7.8043   25.2725  O.co2 1 <0>        -0.4795
23   O2      -31.2596   -8.3216   27.1640  O.co2 1 <0>        -0.2492
24   O3      -24.5812  -18.4291   29.2748  O.3   1 <0>        -0.3918
25   H1      -28.7837  -17.0046   26.8793  H     1 <0>         0.0621
26   H2      -30.6263  -16.6704   25.3805  H     1 <0>         0.0638
27   H3      -28.5898  -12.8267   27.5951  H     1 <0>         0.0627
28   H4      -31.0006  -10.9608   27.3620  H     1 <0>         0.0334
29   H5      -29.6963  -10.6857   26.1873  H     1 <0>         0.0334
30   H6      -32.5996  -11.8740   23.4217  H     1 <0>         0.0488
31   H7      -33.7863  -12.5864   24.5417  H     1 <0>         0.0488
32   H8      -25.7398  -14.6348   30.5514  H     1 <0>         0.0266
33   H9      -26.8784  -15.3018   31.7044  H     1 <0>         0.0266
34   H10     -28.2781  -16.1955   29.7818  H     1 <0>         0.0271
35   H11     -28.2326  -14.4558   29.9976  H     1 <0>         0.0271
36   H12     -26.1545  -16.0871   26.5904  H     1 <0>         0.0272
37   H13     -26.7055  -17.2079   27.8222  H     1 <0>         0.0272
38   H14     -25.2333  -16.9587   31.6453  H     1 <0>         0.0290
39   H15     -26.4862  -17.5986   30.6072  H     1 <0>         0.0290
40   H16     -24.1531  -16.6864   27.5166  H     1 <0>         0.0290
41   H17     -24.4823  -15.2122   28.3946  H     1 <0>         0.0290
42   H18     -26.6637  -14.1807   28.1501  H     1 <0>         0.0349
43   H19     -31.1694   -9.9038   24.4893  H     1 <0>         0.0579
44   H20     -23.6839  -16.7715   29.9870  H     1 <0>         0.0593
45   H21     -33.6483  -10.1790   24.7376  H     1 <0>         0.1231
46   H22     -24.0500  -18.8348   29.9968  H     1 <0>         0.2098
@<TRIPOS>BOND
     1    1    2 ar
     2    1    5 ar
     3    2    7 ar
     4    3    4 ar
     5    3    5 ar
     6    4    6 2
     7    4    7 ar
     8    5   17 1
     9    6    8 1
    10    6   10 1
    11    7   20 2
    12    8   11 1
    13    8   20 1
    14    9   18 1
    15    9   22 1
    16    9   23 2
    17   10   18 1
    18   11   21 1
    19   12   13 1
    20   12   15 1
    21   13   17 1
    22   14   16 1
    23   14   17 1
    24   15   19 1
    25   16   19 1
    26   18   21 1
    27   19   24 1
    28    1   25 1
    29    2   26 1
    30    3   27 1
    31   10   28 1
    32   10   29 1
    33   11   30 1
    34   11   31 1
    35   12   32 1
    36   12   33 1
    37   13   34 1
    38   13   35 1
    39   14   36 1
    40   14   37 1
    41   15   38 1
    42   15   39 1
    43   16   40 1
    44   16   41 1
    45   17   42 1
    46   18   43 1
    47   19   44 1
    48   21   45 1
    49   24   46 1
@<TRIPOS>PROPERTY_DATA
  Total_Score	| 7.0622
  Crash		| -4.3065
  Polar		| 4.0139

@<TRIPOS>MOLECULE
ligand_uncharged50_000
   54    57     0     0     0
SMALL
USER_CHARGES

@<TRIPOS>ATOM
1    C1      -26.7088  -10.2666   28.1926  C.ar  1 <0>        -0.0563
2    C2      -27.5425   -9.2108   27.7787  C.ar  1 <0>        -0.0375
3    C3      -28.3303  -11.8997   27.3693  C.ar  1 <0>        -0.0489
4    C4      -29.1523  -10.8363   26.9714  C.ar  1 <0>         0.0035
5    C5      -27.0883  -11.6225   28.0004  C.ar  1 <0>        -0.0436
6    C6      -30.3872  -10.8114   26.3445  C.2   1 <0>        -0.0159
7    C7      -28.7788   -9.5146   27.1804  C.ar  1 <0>         0.0470
8    C8      -30.7141   -9.4675   26.1994  C.2   1 <0>         0.0343
9    C9      -33.4310  -12.4293   24.7179  C.2   1 <0>         0.3223
10   C10     -31.2127  -11.9230   25.8410  C.3   1 <0>         0.0005
11   C11     -31.9697   -9.0227   25.5641  C.3   1 <0>         0.0374
12   C12     -24.5643  -14.5013   27.3542  C.3   1 <0>        -0.0511
13   C13     -25.7503  -13.5335   27.1300  C.3   1 <0>        -0.0462
14   C14     -26.8422  -13.6075   29.5264  C.3   1 <0>        -0.0447
15   C15     -24.9347  -15.9146   27.8781  C.3   1 <0>        -0.0359
16   C16     -26.0184  -14.8189   30.0384  C.3   1 <0>        -0.0354
17   C17     -26.1867  -12.7440   28.4068  C.3   1 <0>        -0.0158
18   C18     -32.6736  -11.4562   25.5400  C.3   1 <0>         0.1101
19   C19     -25.9731  -16.0192   29.0421  C.3   1 <0>         0.0285
20   C20     -23.3120  -18.8137   29.7014  C.3   1 <0>         0.0705
21   N1      -29.7454   -8.6940   26.7275  N.2   1 <0>        -0.3567
22   N2      -25.8717  -17.2670   29.7454  N.pl3 1 <0>        -0.1917
23   N3      -32.6847  -10.1268   24.8673  N.4   1 <0>        -0.2984
24   O1      -32.8453  -13.5028   24.1376  O.co2 1 <0>        -0.4795
25   O2      -34.7809  -12.3606   24.6697  O.co2 1 <0>        -0.2492
26   O3      -25.1387  -18.8022   31.6393  O.2   1 <0>        -0.1585
27   O4      -23.8674  -16.6932   31.5402  O.2   1 <0>        -0.1585
28   S1      -24.5046  -17.7873   30.5843  S.o2  1 <0>         0.0268
29   H1      -25.8073  -10.0420   28.6199  H     1 <0>         0.0621
30   H2      -27.2450   -8.2437   27.9013  H     1 <0>         0.0638
31   H3      -28.6365  -12.8572   27.1921  H     1 <0>         0.0627
32   H4      -30.7242  -12.2929   24.9350  H     1 <0>         0.0334
33   H5      -31.2328  -12.7254   26.5845  H     1 <0>         0.0334
34   H6      -32.6192   -8.5956   26.3245  H     1 <0>         0.0488
35   H7      -31.7433   -8.2529   24.8255  H     1 <0>         0.0488
36   H8      -24.0510  -14.6378   26.3954  H     1 <0>         0.0266
37   H9      -23.8523  -14.0371   28.0415  H     1 <0>         0.0266
38   H10     -25.4211  -12.8108   26.3754  H     1 <0>         0.0271
39   H11     -26.5926  -14.0844   26.7050  H     1 <0>         0.0271
40   H12     -27.8192  -13.9699   29.1960  H     1 <0>         0.0272
41   H13     -27.0308  -12.9538   30.3799  H     1 <0>         0.0272
42   H14     -25.3197  -16.4936   27.0354  H     1 <0>         0.0281
43   H15     -23.9980  -16.3915   28.1678  H     1 <0>         0.0281
44   H16     -25.0037  -14.4963   30.2930  H     1 <0>         0.0281
45   H17     -26.4941  -15.1503   30.9669  H     1 <0>         0.0281
46   H18     -25.2745  -12.3190   28.8406  H     1 <0>         0.0349
47   H19     -33.2024  -11.3585   26.4930  H     1 <0>         0.0579
48   H20     -26.9558  -16.0722   28.5642  H     1 <0>         0.0477
49   H21     -22.6794  -19.3434   30.4140  H     1 <0>         0.0479
50   H22     -23.8447  -19.5356   29.0816  H     1 <0>         0.0479
51   H23     -22.6852  -18.1871   29.0718  H     1 <0>         0.0479
52   H24     -26.7133  -17.6660   30.0248  H     1 <0>         0.1479
53   H25     -33.6605   -9.8444   24.7455  H     1 <0>         0.1231
54   H26     -32.2599  -10.2323   23.9426  H     1 <0>         0.0000
@<TRIPOS>BOND
     1    1    2 ar
     2    1    5 ar
     3    2    7 ar
     4    3    4 ar
     5    3    5 ar
     6    4    6 1
     7    4    7 ar
     8    5   17 1
     9    6    8 2
    10    6   10 1
    11    7   21 1
    12    8   11 1
    13    8   21 1
    14    9   18 1
    15    9   24 1
    16    9   25 2
    17   10   18 1
    18   11   23 1
    19   12   13 1
    20   12   15 1
    21   13   17 1
    22   14   16 1
    23   14   17 1
    24   15   19 1
    25   16   19 1
    26   18   23 1
    27   19   22 1
    28   20   28 1
    29   22   28 1
    30   26   28 2
    31   27   28 2
    32    1   29 1
    33    2   30 1
    34    3   31 1
    35   10   32 1
    36   10   33 1
    37   11   34 1
    38   11   35 1
    39   12   36 1
    40   12   37 1
    41   13   38 1
    42   13   39 1
    43   14   40 1
    44   14   41 1
    45   15   42 1
    46   15   43 1
    47   16   44 1
    48   16   45 1
    49   17   46 1
    50   18   47 1
    51   19   48 1
    52   20   49 1
    53   20   50 1
    54   20   51 1
    55   22   52 1
    56   23   53 1
    57   23   54 1
@<TRIPOS>PROPERTY_DATA
  Total_Score	| 6.8350
  Crash		| -5.1238
  Polar		| 2.5190

@<TRIPOS>MOLECULE
ligand_uncharged50_001
   54    57     0     0     0
SMALL
USER_CHARGES

@<TRIPOS>ATOM
1    C1      -26.7901  -10.4776   28.3816  C.ar  1 <0>        -0.0563
2    C2      -27.6193   -9.4014   28.0017  C.ar  1 <0>        -0.0375
3    C3      -28.4153  -12.0697   27.4899  C.ar  1 <0>        -0.0489
4    C4      -29.2264  -10.9914   27.1128  C.ar  1 <0>         0.0035
5    C5      -27.1747  -11.8239   28.1360  C.ar  1 <0>        -0.0436
6    C6      -30.4503  -10.9295   26.4658  C.2   1 <0>        -0.0159
7    C7      -28.8408   -9.6778   27.3718  C.ar  1 <0>         0.0470
8    C8      -30.7527   -9.5751   26.3428  C.2   1 <0>         0.0343
9    C9      -33.4888  -12.4376   24.7186  C.2   1 <0>         0.3223
10   C10     -31.2878  -12.0133   25.9172  C.3   1 <0>         0.0005
11   C11     -31.9715   -9.0935   25.6777  C.3   1 <0>         0.0374
12   C12     -24.6794  -14.7006   27.3662  C.3   1 <0>        -0.0511
13   C13     -25.8294  -13.6853   27.1787  C.3   1 <0>        -0.0462
14   C14     -26.9103  -13.8682   29.5840  C.3   1 <0>        -0.0447
15   C15     -25.1136  -16.1256   27.7903  C.3   1 <0>        -0.0359
16   C16     -26.0818  -15.1044   30.0466  C.3   1 <0>        -0.0354
17   C17     -26.2638  -12.9606   28.4898  C.3   1 <0>        -0.0158
18   C18     -32.7227  -11.5024   25.5748  C.3   1 <0>         0.1101
19   C19     -26.0692  -16.2773   29.0206  C.3   1 <0>         0.0285
20   C20     -23.8826  -17.6453   31.7792  C.3   1 <0>         0.0705
21   N1      -29.7884   -8.8382   26.9220  N.2   1 <0>        -0.3567
22   N2      -25.9637  -17.5487   29.6855  N.pl3 1 <0>        -0.1917
23   N3      -32.6745  -10.1624   24.9194  N.4   1 <0>        -0.2984
24   O1      -32.9220  -13.5376   24.1687  O.co2 1 <0>        -0.4795
25   O2      -34.8364  -12.3309   24.6432  O.co2 1 <0>        -0.2492
26   O3      -23.4728  -18.6279   29.1473  O.2   1 <0>        -0.1585
27   O4      -25.0842  -19.7515   30.6640  O.2   1 <0>        -0.1585
28   S1      -24.5667  -18.3042   30.2555  S.o2  1 <0>         0.0268
29   H1      -25.8941  -10.2681   28.8299  H     1 <0>         0.0621
30   H2      -27.3205   -8.4403   28.1650  H     1 <0>         0.0638
31   H3      -28.7235  -13.0223   27.2758  H     1 <0>         0.0627
32   H4      -30.7807  -12.3925   25.0278  H     1 <0>         0.0334
33   H5      -31.3612  -12.8243   26.6490  H     1 <0>         0.0334
34   H6      -32.6398   -8.6798   26.4309  H     1 <0>         0.0488
35   H7      -31.7079   -8.3003   24.9759  H     1 <0>         0.0488
36   H8      -24.1553  -14.7935   26.4092  H     1 <0>         0.0266
37   H9      -23.9620  -14.3066   28.0855  H     1 <0>         0.0266
38   H10     -25.4700  -12.9257   26.4801  H     1 <0>         0.0271
39   H11     -26.6827  -14.1804   26.7135  H     1 <0>         0.0271
40   H12     -27.8901  -14.2145   29.2514  H     1 <0>         0.0272
41   H13     -27.0841  -13.2426   30.4632  H     1 <0>         0.0272
42   H14     -25.5973  -16.6004   26.9230  H     1 <0>         0.0281
43   H15     -24.1817  -16.6796   27.9693  H     1 <0>         0.0281
44   H16     -25.0603  -14.7998   30.2946  H     1 <0>         0.0281
45   H17     -26.5395  -15.4576   30.9752  H     1 <0>         0.0281
46   H18     -25.3503  -12.5499   28.9390  H     1 <0>         0.0349
47   H19     -33.2793  -11.3950   26.5127  H     1 <0>         0.0579
48   H20     -27.0795  -16.3167   28.5980  H     1 <0>         0.0477
49   H21     -22.9970  -18.2084   32.0674  H     1 <0>         0.0479
50   H22     -23.6246  -16.5990   31.6432  H     1 <0>         0.0479
51   H23     -24.6343  -17.7318   32.5575  H     1 <0>         0.0479
52   H24     -26.7864  -17.8786   30.0860  H     1 <0>         0.1479
53   H25     -33.6350   -9.8552   24.7570  H     1 <0>         0.1231
54   H26     -32.2007  -10.2638   24.0212  H     1 <0>         0.0000
@<TRIPOS>BOND
     1    1    2 ar
     2    1    5 ar
     3    2    7 ar
     4    3    4 ar
     5    3    5 ar
     6    4    6 1
     7    4    7 ar
     8    5   17 1
     9    6    8 2
    10    6   10 1
    11    7   21 1
    12    8   11 1
    13    8   21 1
    14    9   18 1
    15    9   24 1
    16    9   25 2
    17   10   18 1
    18   11   23 1
    19   12   13 1
    20   12   15 1
    21   13   17 1
    22   14   16 1
    23   14   17 1
    24   15   19 1
    25   16   19 1
    26   18   23 1
    27   19   22 1
    28   20   28 1
    29   22   28 1
    30   26   28 2
    31   27   28 2
    32    1   29 1
    33    2   30 1
    34    3   31 1
    35   10   32 1
    36   10   33 1
    37   11   34 1
    38   11   35 1
    39   12   36 1
    40   12   37 1
    41   13   38 1
    42   13   39 1
    43   14   40 1
    44   14   41 1
    45   15   42 1
    46   15   43 1
    47   16   44 1
    48   16   45 1
    49   17   46 1
    50   18   47 1
    51   19   48 1
    52   20   49 1
    53   20   50 1
    54   20   51 1
    55   22   52 1
    56   23   53 1
    57   23   54 1
@<TRIPOS>PROPERTY_DATA
  Total_Score	| 6.4831
  Crash		| -5.5561
  Polar		| 2.4625

@<TRIPOS>MOLECULE
ligand_uncharged50_002
   54    57     0     0     0
SMALL
USER_CHARGES

@<TRIPOS>ATOM
1    C1      -26.3363  -11.6666   28.3738  C.ar  1 <0>        -0.0563
2    C2      -26.7684  -10.3572   28.0761  C.ar  1 <0>        -0.0375
3    C3      -28.3514  -12.5954   27.3495  C.ar  1 <0>        -0.0489
4    C4      -28.7620  -11.2904   27.0672  C.ar  1 <0>         0.0035
5    C5      -27.1288  -12.7982   28.0317  C.ar  1 <0>        -0.0436
6    C6      -29.9124  -10.8272   26.4694  C.2   1 <0>        -0.0159
7    C7      -28.0016  -10.1804   27.4273  C.ar  1 <0>         0.0470
8    C8      -29.8224   -9.4378   26.4804  C.2   1 <0>         0.0343
9    C9      -33.4679  -11.3070   25.2534  C.2   1 <0>         0.3223
10   C10     -31.0575  -11.5835   25.9416  C.3   1 <0>         0.0005
11   C11     -30.9237   -8.5850   25.9886  C.3   1 <0>         0.0374
12   C12     -26.8207  -15.7770   30.4770  C.3   1 <0>        -0.0511
13   C13     -26.5949  -14.3316   29.9590  C.3   1 <0>        -0.0462
14   C14     -25.4950  -14.6539   27.6142  C.3   1 <0>        -0.0447
15   C15     -25.6911  -16.8254   30.2539  C.3   1 <0>        -0.0359
16   C16     -25.1714  -16.1608   27.7860  C.3   1 <0>        -0.0354
17   C17     -26.7439  -14.1907   28.4134  C.3   1 <0>        -0.0158
18   C18     -32.3290  -10.6890   25.9546  C.3   1 <0>         0.1101
19   C19     -24.5932  -16.5325   29.1875  C.3   1 <0>         0.0285
20   C20     -24.3578  -20.3600   29.8288  C.3   1 <0>         0.0705
21   N1      -28.6655   -9.0631   27.0686  N.2   1 <0>        -0.3567
22   N2      -23.6205  -17.5672   28.9940  N.pl3 1 <0>        -0.1917
23   N3      -32.0409   -9.3503   25.3679  N.4   1 <0>        -0.2984
24   O1      -33.5251  -11.4535   23.9108  O.co2 1 <0>        -0.4795
25   O2      -34.5268  -11.7169   25.9790  O.co2 1 <0>        -0.2492
26   O3      -23.0203  -18.4736   31.4805  O.2   1 <0>        -0.1585
27   O4      -21.8765  -19.3754   29.4424  O.2   1 <0>        -0.1585
28   S1      -23.3000  -18.9033   29.9744  S.o2  1 <0>         0.0268
29   H1      -25.4495  -11.7929   28.8677  H     1 <0>         0.0621
30   H2      -26.2029   -9.5492   28.3421  H     1 <0>         0.0638
31   H3      -28.9511  -13.3787   27.0833  H     1 <0>         0.0627
32   H4      -30.8069  -11.9016   24.9258  H     1 <0>         0.0334
33   H5      -31.2362  -12.4694   26.5548  H     1 <0>         0.0334
34   H6      -31.3200   -8.0032   26.8236  H     1 <0>         0.0488
35   H7      -30.5341   -7.8975   25.2381  H     1 <0>         0.0488
36   H8      -26.9904  -15.6949   31.5530  H     1 <0>         0.0266
37   H9      -27.7536  -16.1612   30.0489  H     1 <0>         0.0266
38   H10     -27.3558  -13.7090   30.4429  H     1 <0>         0.0271
39   H11     -25.6210  -13.9637   30.2884  H     1 <0>         0.0271
40   H12     -24.6226  -14.0555   27.8896  H     1 <0>         0.0272
41   H13     -25.6811  -14.4811   26.5500  H     1 <0>         0.0272
42   H14     -25.1804  -16.9632   31.2120  H     1 <0>         0.0281
43   H15     -26.1678  -17.7775   30.0100  H     1 <0>         0.0281
44   H16     -26.0700  -16.7540   27.5934  H     1 <0>         0.0281
45   H17     -24.4493  -16.4135   27.0012  H     1 <0>         0.0281
46   H18     -27.5531  -14.8662   28.1138  H     1 <0>         0.0349
47   H19     -32.6303  -10.5469   26.9977  H     1 <0>         0.0579
48   H20     -24.0221  -15.6846   29.5598  H     1 <0>         0.0477
49   H21     -24.0172  -21.1257   30.5249  H     1 <0>         0.0479
50   H22     -25.3910  -20.0954   30.0625  H     1 <0>         0.0479
51   H23     -24.3060  -20.7472   28.8128  H     1 <0>         0.0479
52   H24     -22.8874  -17.3160   28.4048  H     1 <0>         0.1479
53   H25     -32.8879   -8.7779   25.4487  H     1 <0>         0.1231
54   H26     -31.8146   -9.4895   24.3789  H     1 <0>         0.0000
@<TRIPOS>BOND
     1    1    2 ar
     2    1    5 ar
     3    2    7 ar
     4    3    4 ar
     5    3    5 ar
     6    4    6 1
     7    4    7 ar
     8    5   17 1
     9    6    8 2
    10    6   10 1
    11    7   21 1
    12    8   11 1
    13    8   21 1
    14    9   18 1
    15    9   24 1
    16    9   25 2
    17   10   18 1
    18   11   23 1
    19   12   13 1
    20   12   15 1
    21   13   17 1
    22   14   16 1
    23   14   17 1
    24   15   19 1
    25   16   19 1
    26   18   23 1
    27   19   22 1
    28   20   28 1
    29   22   28 1
    30   26   28 2
    31   27   28 2
    32    1   29 1
    33    2   30 1
    34    3   31 1
    35   10   32 1
    36   10   33 1
    37   11   34 1
    38   11   35 1
    39   12   36 1
    40   12   37 1
    41   13   38 1
    42   13   39 1
    43   14   40 1
    44   14   41 1
    45   15   42 1
    46   15   43 1
    47   16   44 1
    48   16   45 1
    49   17   46 1
    50   18   47 1
    51   19   48 1
    52   20   49 1
    53   20   50 1
    54   20   51 1
    55   22   52 1
    56   23   53 1
    57   23   54 1
@<TRIPOS>PROPERTY_DATA
  Total_Score	| 6.4529
  Crash		| -6.1729
  Polar		| 2.8474

@<TRIPOS>MOLECULE
ligand_uncharged57_000
   37    39     0     0     0
SMALL
USER_CHARGES

@<TRIPOS>ATOM
1    C1      -29.0708  -15.9474   27.5887  C.ar  1 <0>        -0.0477
2    C2      -29.9014  -15.8833   26.4506  C.ar  1 <0>        -0.0371
3    C3      -29.2632  -13.5404   27.9182  C.ar  1 <0>        -0.0402
4    C4      -30.1242  -13.4942   26.8097  C.ar  1 <0>         0.0039
5    C5      -28.7246  -14.7859   28.3268  C.ar  1 <0>         0.0376
6    C6      -30.8221  -12.4511   26.2186  C.2   1 <0>        -0.0158
7    C7      -30.4274  -14.6400   26.0811  C.ar  1 <0>         0.0470
8    C8      -31.5006  -13.0110   25.1386  C.2   1 <0>         0.0343
9    C9      -27.9167  -14.8771   29.4625  C.2   1 <0>         0.2462
10   C10     -31.8659   -8.8000   25.8360  C.2   1 <0>         0.3223
11   C11     -30.8568  -11.0128   26.5567  C.3   1 <0>         0.0005
12   C12     -32.3528  -12.2188   24.2408  C.3   1 <0>         0.0374
13   C13     -32.0351  -10.2768   25.8399  C.3   1 <0>         0.1101
14   C14     -25.9760  -15.8421   28.3145  C.3   1 <0>         0.0031
15   C15     -25.9133  -15.4657   30.7380  C.3   1 <0>         0.0031
16   N1      -31.2437  -14.3315   25.0575  N.2   1 <0>        -0.3567
17   N2      -26.6678  -15.3900   29.5055  N.am  1 <0>        -0.3036
18   N3      -32.1684  -10.7536   24.4368  N.4   1 <0>        -0.2984
19   O1      -32.6614   -8.0341   25.0661  O.co2 1 <0>        -0.4795
20   O2      -28.3813  -14.3390   30.4559  O.2   1 <0>        -0.2700
21   O3      -31.1601   -8.1756   26.8121  O.co2 1 <0>        -0.2492
22   H1      -28.7522  -16.8637   27.8942  H     1 <0>         0.0626
23   H2      -30.1353  -16.7353   25.9376  H     1 <0>         0.0638
24   H3      -29.0420  -12.6768   28.4163  H     1 <0>         0.0632
25   H4      -30.9700  -10.9003   27.6378  H     1 <0>         0.0334
26   H5      -29.8960  -10.5764   26.2639  H     1 <0>         0.0334
27   H6      -32.0957  -12.4468   23.2066  H     1 <0>         0.0488
28   H7      -33.3982  -12.4854   24.4052  H     1 <0>         0.0488
29   H8      -32.9719  -10.5045   26.3570  H     1 <0>         0.0579
30   H9      -26.0538  -15.1035   27.5063  H     1 <0>         0.0428
31   H10     -26.4013  -16.7882   27.9811  H     1 <0>         0.0428
32   H11     -24.9100  -16.0332   28.4784  H     1 <0>         0.0428
33   H12     -25.6031  -16.4988   30.9028  H     1 <0>         0.0428
34   H13     -26.4627  -15.1491   31.6216  H     1 <0>         0.0428
35   H14     -25.0270  -14.8329   30.6734  H     1 <0>         0.0428
36   H15     -31.3097  -10.4762   23.9624  H     1 <0>         0.1231
37   H16     -32.9551  -10.2845   23.9801  H     1 <0>         0.0000
@<TRIPOS>BOND
     1    1    2 ar
     2    1    5 ar
     3    2    7 ar
     4    3    4 ar
     5    3    5 ar
     6    4    6 1
     7    4    7 ar
     8    5    9 1
     9    6    8 2
    10    6   11 1
    11    7   16 1
    12    8   12 1
    13    8   16 1
    14    9   17 am
    15    9   20 2
    16   10   13 1
    17   10   19 1
    18   10   21 2
    19   11   13 1
    20   12   18 1
    21   13   18 1
    22   14   17 1
    23   15   17 1
    24    1   22 1
    25    2   23 1
    26    3   24 1
    27   11   25 1
    28   11   26 1
    29   12   27 1
    30   12   28 1
    31   13   29 1
    32   14   30 1
    33   14   31 1
    34   14   32 1
    35   15   33 1
    36   15   34 1
    37   15   35 1
    38   18   36 1
    39   18   37 1
@<TRIPOS>PROPERTY_DATA
  Total_Score	| 9.5622
  Crash		| -1.9388
  Polar		| 5.7446

@<TRIPOS>MOLECULE
ligand_uncharged57_001
   37    39     0     0     0
SMALL
USER_CHARGES

@<TRIPOS>ATOM
1    C1      -28.2702  -15.8962   26.9514  C.ar  1 <0>        -0.0477
2    C2      -29.3967  -15.8700   26.1046  C.ar  1 <0>        -0.0371
3    C3      -28.4968  -13.4880   27.3708  C.ar  1 <0>        -0.0402
4    C4      -29.6213  -13.4775   26.5276  C.ar  1 <0>         0.0039
5    C5      -27.8137  -14.7097   27.5816  C.ar  1 <0>         0.0376
6    C6      -30.5043  -12.4744   26.1378  C.2   1 <0>        -0.0158
7    C7      -30.0507  -14.6460   25.8884  C.ar  1 <0>         0.0470
8    C8      -31.4054  -13.0719   25.2579  C.2   1 <0>         0.0343
9    C9      -26.7017  -14.7642   28.4094  C.2   1 <0>         0.2462
10   C10     -31.7669   -8.8767   26.0528  C.2   1 <0>         0.3223
11   C11     -30.5278  -11.0379   26.4744  C.3   1 <0>         0.0005
12   C12     -32.5032  -12.3303   24.6199  C.3   1 <0>         0.0374
13   C13     -31.8847  -10.3578   26.0884  C.3   1 <0>         0.1101
14   C14     -25.5341  -15.0536   30.5034  C.3   1 <0>         0.0031
15   C15     -28.0291  -15.0643   30.4291  C.3   1 <0>         0.0031
16   N1      -31.0982  -14.3803   25.0959  N.2   1 <0>        -0.3567
17   N2      -26.7600  -14.9383   29.7386  N.am  1 <0>        -0.3036
18   N3      -32.3616  -10.8609   24.7718  N.4   1 <0>        -0.2984
19   O1      -32.4762   -8.1283   25.1706  O.co2 1 <0>        -0.4795
20   O2      -25.6333  -14.6834   27.8134  O.2   1 <0>        -0.2700
21   O3      -31.1169   -8.2221   27.0413  O.co2 1 <0>        -0.2492
22   H1      -27.7734  -16.7822   27.0864  H     1 <0>         0.0626
23   H2      -29.7313  -16.7258   25.6636  H     1 <0>         0.0638
24   H3      -28.1780  -12.6203   27.8104  H     1 <0>         0.0632
25   H4      -30.3627  -10.9221   27.5488  H     1 <0>         0.0334
26   H5      -29.6991  -10.5638   25.9391  H     1 <0>         0.0334
27   H6      -32.4919  -12.5535   23.5540  H     1 <0>         0.0488
28   H7      -33.4591  -12.6534   25.0382  H     1 <0>         0.0488
29   H8      -32.6308  -10.6050   26.8481  H     1 <0>         0.0579
30   H9      -24.9154  -14.1649   30.3658  H     1 <0>         0.0428
31   H10     -24.9714  -15.9301   30.1639  H     1 <0>         0.0428
32   H11     -25.7000  -15.1766   31.5741  H     1 <0>         0.0428
33   H12     -28.5310  -15.9768   30.1008  H     1 <0>         0.0428
34   H13     -28.6716  -14.2094   30.2041  H     1 <0>         0.0428
35   H14     -27.9355  -15.1107   31.5152  H     1 <0>         0.0428
36   H15     -31.6774  -10.5568   24.0825  H     1 <0>         0.1231
37   H16     -33.2622  -10.4324   24.5503  H     1 <0>         0.0000
@<TRIPOS>BOND
     1    1    2 ar
     2    1    5 ar
     3    2    7 ar
     4    3    4 ar
     5    3    5 ar
     6    4    6 1
     7    4    7 ar
     8    5    9 1
     9    6    8 2
    10    6   11 1
    11    7   16 1
    12    8   12 1
    13    8   16 1
    14    9   17 am
    15    9   20 2
    16   10   13 1
    17   10   19 1
    18   10   21 2
    19   11   13 1
    20   12   18 1
    21   13   18 1
    22   14   17 1
    23   15   17 1
    24    1   22 1
    25    2   23 1
    26    3   24 1
    27   11   25 1
    28   11   26 1
    29   12   27 1
    30   12   28 1
    31   13   29 1
    32   14   30 1
    33   14   31 1
    34   14   32 1
    35   15   33 1
    36   15   34 1
    37   15   35 1
    38   18   36 1
    39   18   37 1
@<TRIPOS>PROPERTY_DATA
  Total_Score	| 7.4268
  Crash		| -1.8516
  Polar		| 4.7544

@<TRIPOS>MOLECULE
ligand_uncharged57_002
   37    39     0     0     0
SMALL
USER_CHARGES

@<TRIPOS>ATOM
1    C1      -28.3248  -15.9238   26.9079  C.ar  1 <0>        -0.0477
2    C2      -29.4568  -15.8901   26.0706  C.ar  1 <0>        -0.0371
3    C3      -28.5398  -13.5196   27.3387  C.ar  1 <0>        -0.0402
4    C4      -29.6711  -13.4981   26.4989  C.ar  1 <0>         0.0039
5    C5      -27.8559  -14.7443   27.5413  C.ar  1 <0>         0.0376
6    C6      -30.5395  -12.4878   26.1094  C.2   1 <0>        -0.0158
7    C7      -30.1060  -14.6624   25.8642  C.ar  1 <0>         0.0470
8    C8      -31.4495  -13.0800   25.2334  C.2   1 <0>         0.0343
9    C9      -26.7328  -14.7984   28.3485  C.2   1 <0>         0.2462
10   C10     -31.8050   -8.8905   26.0414  C.2   1 <0>         0.3223
11   C11     -30.5461  -11.0433   26.4405  C.3   1 <0>         0.0005
12   C12     -32.5389  -12.3311   24.5906  C.3   1 <0>         0.0374
13   C13     -31.9058  -10.3687   26.0609  C.3   1 <0>         0.1101
14   C14     -28.0240  -15.0631   30.3949  C.3   1 <0>         0.0031
15   C15     -25.5250  -15.0803   30.4281  C.3   1 <0>         0.0031
16   N1      -31.1568  -14.3873   25.0729  N.2   1 <0>        -0.3567
17   N2      -26.7637  -14.9581   29.6878  N.am  1 <0>        -0.3036
18   N3      -32.4054  -10.8602   24.7485  N.4   1 <0>        -0.2984
19   O1      -31.2010   -8.2459   27.0652  O.co2 1 <0>        -0.4795
20   O2      -25.6717  -14.7334   27.7398  O.2   1 <0>        -0.2700
21   O3      -32.3751   -8.1350   25.0656  O.co2 1 <0>        -0.2492
22   H1      -27.8427  -16.8142   27.0473  H     1 <0>         0.0626
23   H2      -29.7927  -16.7412   25.6131  H     1 <0>         0.0638
24   H3      -28.2240  -12.6551   27.7888  H     1 <0>         0.0632
25   H4      -30.3697  -10.9234   27.5107  H     1 <0>         0.0334
26   H5      -29.7189  -10.5770   25.8983  H     1 <0>         0.0334
27   H6      -32.5283  -12.5494   23.5239  H     1 <0>         0.0488
28   H7      -33.4934  -12.6541   25.0080  H     1 <0>         0.0488
29   H8      -32.6476  -10.6292   26.8243  H     1 <0>         0.0579
30   H9      -28.5570  -15.9523   30.0599  H     1 <0>         0.0428
31   H10     -28.6410  -14.1847   30.1993  H     1 <0>         0.0428
32   H11     -27.9051  -15.1361   31.4759  H     1 <0>         0.0428
33   H12     -24.9216  -14.1790   30.2985  H     1 <0>         0.0428
34   H13     -24.9602  -15.9426   30.0618  H     1 <0>         0.0428
35   H14     -25.6725  -15.2271   31.5013  H     1 <0>         0.0428
36   H15     -31.7496  -10.5336   24.0382  H     1 <0>         0.1231
37   H16     -33.3245  -10.4409   24.5724  H     1 <0>         0.0000
@<TRIPOS>BOND
     1    1    2 ar
     2    1    5 ar
     3    2    7 ar
     4    3    4 ar
     5    3    5 ar
     6    4    6 1
     7    4    7 ar
     8    5    9 1
     9    6    8 2
    10    6   11 1
    11    7   16 1
    12    8   12 1
    13    8   16 1
    14    9   17 am
    15    9   20 2
    16   10   13 1
    17   10   19 1
    18   10   21 2
    19   11   13 1
    20   12   18 1
    21   13   18 1
    22   14   17 1
    23   15   17 1
    24    1   22 1
    25    2   23 1
    26    3   24 1
    27   11   25 1
    28   11   26 1
    29   12   27 1
    30   12   28 1
    31   13   29 1
    32   14   30 1
    33   14   31 1
    34   14   32 1
    35   15   33 1
    36   15   34 1
    37   15   35 1
    38   18   36 1
    39   18   37 1
@<TRIPOS>PROPERTY_DATA
  Total_Score	| 7.4015
  Crash		| -1.8786
  Polar		| 4.7523

@<TRIPOS>MOLECULE
ligand_hydrophobic2_000
   30    32     0     0     0
SMALL
USER_CHARGES

@<TRIPOS>ATOM
1    C1      -27.0616  -14.5243   28.1592  C.ar  1 <0>        -0.0569
2    C2      -28.3039  -14.8557   27.5796  C.ar  1 <0>        -0.0375
3    C3      -27.5538  -12.1402   27.9222  C.ar  1 <0>        -0.0494
4    C4      -28.7940  -12.4826   27.3481  C.ar  1 <0>         0.0034
5    C5      -29.8462  -11.7231   26.8576  C.2   1 <0>        -0.0159
6    C6      -26.6774  -13.1736   28.3429  C.ar  1 <0>        -0.0498
7    C7      -29.1586  -13.8197   27.1775  C.ar  1 <0>         0.0470
8    C8      -30.7945  -12.6258   26.3877  C.2   1 <0>         0.0343
9    C9      -31.5367   -8.4362   25.9627  C.2   1 <0>         0.3223
10   C10     -30.0026  -10.2552   26.7777  C.3   1 <0>         0.0005
11   C11     -32.0597  -12.1975   25.7628  C.3   1 <0>         0.0374
12   C12     -31.4694   -9.8395   26.4300  C.3   1 <0>         0.1101
13   C13     -25.3584  -12.8336   28.9273  C.3   1 <0>        -0.0397
14   N1      -30.3715  -13.8862   26.5980  N.2   1 <0>        -0.3567
15   N2      -32.0382  -10.7576   25.4016  N.4   1 <0>        -0.2984
16   O1      -30.8348   -7.4652   26.5926  O.co2 1 <0>        -0.4795
17   O2      -32.4158   -8.0584   25.0002  O.co2 1 <0>        -0.2492
18   H1      -26.4333  -15.2842   28.4381  H     1 <0>         0.0621
19   H2      -28.5753  -15.8328   27.4457  H     1 <0>         0.0638
20   H3      -27.3036  -11.1559   28.0376  H     1 <0>         0.0627
21   H4      -29.7266   -9.8155   27.7420  H     1 <0>         0.0334
22   H5      -29.3075   -9.8875   26.0178  H     1 <0>         0.0334
23   H6      -32.2196  -12.7759   24.8479  H     1 <0>         0.0488
24   H7      -32.8882  -12.4007   26.4490  H     1 <0>         0.0488
25   H8      -32.0828   -9.9127   27.3326  H     1 <0>         0.0579
26   H9      -24.6444  -12.6684   28.1187  H     1 <0>         0.0278
27   H10     -25.4260  -11.9286   29.5307  H     1 <0>         0.0278
28   H11     -24.9881  -13.6367   29.5649  H     1 <0>         0.0278
29   H12     -31.4727  -10.6601   24.5566  H     1 <0>         0.1231
30   H13     -32.9965  -10.4701   25.1852  H     1 <0>         0.0000
@<TRIPOS>BOND
     1    1    2 ar
     2    1    6 ar
     3    2    7 ar
     4    3    4 ar
     5    3    6 ar
     6    4    5 1
     7    4    7 ar
     8    5    8 2
     9    5   10 1
    10    6   13 1
    11    7   14 1
    12    8   11 1
    13    8   14 1
    14    9   12 1
    15    9   16 1
    16    9   17 2
    17   10   12 1
    18   11   15 1
    19   12   15 1
    20    1   18 1
    21    2   19 1
    22    3   20 1
    23   10   21 1
    24   10   22 1
    25   11   23 1
    26   11   24 1
    27   12   25 1
    28   13   26 1
    29   13   27 1
    30   13   28 1
    31   15   29 1
    32   15   30 1
@<TRIPOS>PROPERTY_DATA
  Total_Score	| 9.2145
  Crash		| -0.4548
  Polar		| 6.6466

@<TRIPOS>MOLECULE
ligand_hydrophobic2_001
   30    32     0     0     0
SMALL
USER_CHARGES

@<TRIPOS>ATOM
1    C1      -27.0292  -14.5266   28.1534  C.ar  1 <0>        -0.0569
2    C2      -28.2747  -14.8609   27.5782  C.ar  1 <0>        -0.0375
3    C3      -27.5380  -12.1458   27.9135  C.ar  1 <0>        -0.0494
4    C4      -28.7739  -12.4933   27.3409  C.ar  1 <0>         0.0034
5    C5      -29.8323  -11.7333   26.8576  C.2   1 <0>        -0.0159
6    C6      -26.6529  -13.1730   28.3335  C.ar  1 <0>        -0.0498
7    C7      -29.1367  -13.8294   27.1781  C.ar  1 <0>         0.0470
8    C8      -30.7780  -12.6443   26.3898  C.2   1 <0>         0.0343
9    C9      -31.5306   -8.4580   25.9555  C.2   1 <0>         0.3223
10   C10     -29.9968  -10.2680   26.7799  C.3   1 <0>         0.0005
11   C11     -32.0494  -12.2222   25.7711  C.3   1 <0>         0.0374
12   C12     -31.4638   -9.8590   26.4298  C.3   1 <0>         0.1101
13   C13     -25.3359  -12.8229   28.9134  C.3   1 <0>        -0.0397
14   N1      -30.3505  -13.9058   26.6018  N.2   1 <0>        -0.3567
15   N2      -32.0370  -10.7791   25.4067  N.4   1 <0>        -0.2984
16   O1      -32.4149   -8.0804   25.0047  O.co2 1 <0>        -0.4795
17   O2      -30.8147   -7.4916   26.5724  O.co2 1 <0>        -0.2492
18   H1      -26.3985  -15.2820   28.4338  H     1 <0>         0.0621
19   H2      -28.5367  -15.8368   27.4477  H     1 <0>         0.0638
20   H3      -27.2902  -11.1613   28.0268  H     1 <0>         0.0627
21   H4      -29.7213   -9.8221   27.7387  H     1 <0>         0.0334
22   H5      -29.3041   -9.9030   26.0160  H     1 <0>         0.0334
23   H6      -32.2059  -12.8022   24.8579  H     1 <0>         0.0488
24   H7      -32.8719  -12.4328   26.4587  H     1 <0>         0.0488
25   H8      -32.0727   -9.9373   27.3357  H     1 <0>         0.0579
26   H9      -24.6244  -12.6535   28.1055  H     1 <0>         0.0278
27   H10     -25.4028  -11.9186   29.5223  H     1 <0>         0.0278
28   H11     -24.9584  -13.6266   29.5524  H     1 <0>         0.0278
29   H12     -31.4763  -10.6807   24.5578  H     1 <0>         0.1231
30   H13     -32.9962  -10.4889   25.1947  H     1 <0>         0.0000
@<TRIPOS>BOND
     1    1    2 ar
     2    1    6 ar
     3    2    7 ar
     4    3    4 ar
     5    3    6 ar
     6    4    5 1
     7    4    7 ar
     8    5    8 2
     9    5   10 1
    10    6   13 1
    11    7   14 1
    12    8   11 1
    13    8   14 1
    14    9   12 1
    15    9   16 1
    16    9   17 2
    17   10   12 1
    18   11   15 1
    19   12   15 1
    20    1   18 1
    21    2   19 1
    22    3   20 1
    23   10   21 1
    24   10   22 1
    25   11   23 1
    26   11   24 1
    27   12   25 1
    28   13   26 1
    29   13   27 1
    30   13   28 1
    31   15   29 1
    32   15   30 1
@<TRIPOS>PROPERTY_DATA
  Total_Score	| 9.1748
  Crash		| -0.4365
  Polar		| 6.6389

@<TRIPOS>MOLECULE
ligand_hydrophobic2_002
   30    32     0     0     0
SMALL
USER_CHARGES

@<TRIPOS>ATOM
1    C1      -28.3349  -15.7430   27.6526  C.ar  1 <0>        -0.0569
2    C2      -29.2922  -15.7828   26.6180  C.ar  1 <0>        -0.0375
3    C3      -28.7618  -13.3583   27.9963  C.ar  1 <0>        -0.0494
4    C4      -29.7225  -13.4121   26.9696  C.ar  1 <0>         0.0034
5    C5      -30.5577  -12.4520   26.4155  C.2   1 <0>        -0.0159
6    C6      -28.0617  -14.5363   28.3511  C.ar  1 <0>        -0.0498
7    C7      -29.9790  -14.6032   26.2858  C.ar  1 <0>         0.0470
8    C8      -31.2659  -13.0940   25.3989  C.2   1 <0>         0.0343
9    C9      -31.8482   -8.8925   25.9927  C.2   1 <0>         0.3223
10   C10     -30.6861  -11.0114   26.7206  C.3   1 <0>         0.0005
11   C11     -32.2395  -12.3890   24.5497  C.3   1 <0>         0.0374
12   C12     -31.9424  -10.3713   26.0418  C.3   1 <0>         0.1101
13   C13     -27.0253  -14.4956   29.4079  C.3   1 <0>        -0.0397
14   N1      -30.8985  -14.3882   25.3274  N.2   1 <0>        -0.3567
15   N2      -32.1164  -10.9137   24.6675  N.4   1 <0>        -0.2984
16   O1      -32.5110   -8.1749   25.0534  O.co2 1 <0>        -0.4795
17   O2      -31.2547   -8.2071   26.9970  O.co2 1 <0>        -0.2492
18   H1      -27.8266  -16.5992   27.8860  H     1 <0>         0.0621
19   H2      -29.4791  -16.6531   26.1144  H     1 <0>         0.0638
20   H3      -28.5810  -12.4736   28.4739  H     1 <0>         0.0627
21   H4      -30.7542  -10.8727   27.8043  H     1 <0>         0.0334
22   H5      -29.7731  -10.5216   26.3692  H     1 <0>         0.0334
23   H6      -32.0689  -12.6601   23.5067  H     1 <0>         0.0488
24   H7      -33.2497  -12.6982   24.8274  H     1 <0>         0.0488
25   H8      -32.8322  -10.6311   26.6244  H     1 <0>         0.0579
26   H9      -26.0808  -14.1654   28.9704  H     1 <0>         0.0278
27   H10     -27.3053  -13.8010   30.2027  H     1 <0>         0.0278
28   H11     -26.8769  -15.4775   29.8592  H     1 <0>         0.0278
29   H12     -31.2964  -10.6304   24.1302  H     1 <0>         0.1231
30   H13     -32.9442  -10.4921   24.2357  H     1 <0>         0.0000
@<TRIPOS>BOND
     1    1    2 ar
     2    1    6 ar
     3    2    7 ar
     4    3    4 ar
     5    3    6 ar
     6    4    5 1
     7    4    7 ar
     8    5    8 2
     9    5   10 1
    10    6   13 1
    11    7   14 1
    12    8   11 1
    13    8   14 1
    14    9   12 1
    15    9   16 1
    16    9   17 2
    17   10   12 1
    18   11   15 1
    19   12   15 1
    20    1   18 1
    21    2   19 1
    22    3   20 1
    23   10   21 1
    24   10   22 1
    25   11   23 1
    26   11   24 1
    27   12   25 1
    28   13   26 1
    29   13   27 1
    30   13   28 1
    31   15   29 1
    32   15   30 1
@<TRIPOS>PROPERTY_DATA
  Total_Score	| 7.4167
  Crash		| -0.6589
  Polar		| 4.6435

@<TRIPOS>MOLECULE
ligand_negative5_000
   39    42     0     0     0
SMALL
USER_CHARGES

@<TRIPOS>ATOM
1    C1      -27.0368  -15.0739   29.4751  C.ar  1 <0>        -0.0533
2    C2      -25.3000  -14.8788   27.7811  C.ar  1 <0>        -0.0533
3    C3      -26.1383  -11.8981   28.3876  C.ar  1 <0>        -0.0521
4    C4      -26.5257  -16.3294   29.8521  C.ar  1 <0>        -0.0472
5    C5      -24.7970  -16.1376   28.1583  C.ar  1 <0>        -0.0472
6    C6      -26.6247  -10.6058   28.1003  C.ar  1 <0>        -0.0372
7    C7      -28.1866  -12.9017   27.4899  C.ar  1 <0>        -0.0446
8    C8      -28.6557  -11.6070   27.2002  C.ar  1 <0>         0.0038
9    C9      -26.4261  -14.3347   28.4384  C.ar  1 <0>        -0.0178
10   C10     -26.9105  -13.0493   28.0934  C.ar  1 <0>        -0.0172
11   C11     -25.3968  -16.8825   29.2048  C.ar  1 <0>         0.0589
12   C12     -29.8338  -11.1439   26.6357  C.2   1 <0>        -0.0158
13   C13     -27.8921  -10.4770   27.5093  C.ar  1 <0>         0.0470
14   C14     -29.7365   -9.7498   26.6160  C.2   1 <0>         0.0343
15   C15     -24.8784  -18.1460   29.5880  C.2   1 <0>         0.3368
16   C16     -33.4056  -11.5739   25.4075  C.2   1 <0>         0.3223
17   C17     -31.0184  -11.8821   26.1398  C.3   1 <0>         0.0005
18   C18     -30.8277   -8.8829   26.1207  C.3   1 <0>         0.0374
19   C19     -32.2704  -10.9528   26.1201  C.3   1 <0>         0.1101
20   N1      -28.5642   -9.3679   27.1583  N.2   1 <0>        -0.3567
21   N2      -31.9345   -9.6472   25.4876  N.4   1 <0>        -0.2984
22   O1      -25.4915  -18.9220   30.5099  O.co2 1 <0>        -0.4771
23   O2      -33.3082  -11.8758   24.0932  O.co2 1 <0>        -0.4795
24   O3      -23.7248  -18.6308   29.0750  O.co2 1 <0>        -0.2451
25   O4      -34.5645  -11.8488   26.0487  O.co2 1 <0>        -0.2492
26   H1      -27.8433  -14.6921   29.9750  H     1 <0>         0.0624
27   H2      -24.8426  -14.3684   27.0225  H     1 <0>         0.0624
28   H3      -25.2224  -11.9905   28.8341  H     1 <0>         0.0624
29   H4      -26.9875  -16.8301   30.6120  H     1 <0>         0.0626
30   H5      -23.9832  -16.5070   27.6553  H     1 <0>         0.0626
31   H6      -26.0701   -9.7791   28.3238  H     1 <0>         0.0638
32   H7      -28.7636  -13.7146   27.2630  H     1 <0>         0.0630
33   H8      -30.7897  -12.2459   25.1327  H     1 <0>         0.0334
34   H9      -31.2113  -12.7416   26.7862  H     1 <0>         0.0334
35   H10     -31.2303   -8.3008   26.9513  H     1 <0>         0.0488
36   H11     -30.4275   -8.1896   25.3752  H     1 <0>         0.0488
37   H12     -32.5767  -10.7536   27.1507  H     1 <0>         0.0579
38   H13     -32.7696   -9.0530   25.5053  H     1 <0>         0.1231
39   H14     -31.6648   -9.8284   24.5151  H     1 <0>         0.0000
@<TRIPOS>BOND
     1    1    4 ar
     2    1    9 ar
     3    2    5 ar
     4    2    9 ar
     5    3    6 ar
     6    3   10 ar
     7    4   11 ar
     8    5   11 ar
     9    6   13 ar
    10    7    8 ar
    11    7   10 ar
    12    8   12 1
    13    8   13 ar
    14    9   10 1
    15   11   15 1
    16   12   14 2
    17   12   17 1
    18   13   20 1
    19   14   18 1
    20   14   20 1
    21   15   22 1
    22   15   24 2
    23   16   19 1
    24   16   23 1
    25   16   25 2
    26   17   19 1
    27   18   21 1
    28   19   21 1
    29    1   26 1
    30    2   27 1
    31    3   28 1
    32    4   29 1
    33    5   30 1
    34    6   31 1
    35    7   32 1
    36   17   33 1
    37   17   34 1
    38   18   35 1
    39   18   36 1
    40   19   37 1
    41   21   38 1
    42   21   39 1
@<TRIPOS>PROPERTY_DATA
  Total_Score	| 7.6701
  Crash		| -1.0132
  Polar		| 2.9993

@<TRIPOS>MOLECULE
ligand_negative5_001
   39    42     0     0     0
SMALL
USER_CHARGES

@<TRIPOS>ATOM
1    C1      -26.7613  -16.1720   28.1249  C.ar  1 <0>        -0.0533
2    C2      -28.0553  -14.9579   29.7878  C.ar  1 <0>        -0.0533
3    C3      -29.4795  -16.2581   26.7412  C.ar  1 <0>        -0.0521
4    C4      -25.7648  -16.4238   29.0841  C.ar  1 <0>        -0.0472
5    C5      -27.0639  -15.2196   30.7455  C.ar  1 <0>        -0.0472
6    C6      -30.4619  -16.0192   25.7620  C.ar  1 <0>        -0.0372
7    C7      -29.3965  -13.8711   27.2817  C.ar  1 <0>        -0.0446
8    C8      -30.3711  -13.6500   26.3007  C.ar  1 <0>         0.0038
9    C9      -27.9214  -15.4428   28.4658  C.ar  1 <0>        -0.0178
10   C10     -28.9308  -15.1932   27.5031  C.ar  1 <0>        -0.0172
11   C11     -25.9056  -15.9597   30.4128  C.ar  1 <0>         0.0589
12   C12     -31.0003  -12.4935   25.8605  C.2   1 <0>        -0.0158
13   C13     -30.8920  -14.7014   25.5458  C.ar  1 <0>         0.0470
14   C14     -31.8926  -12.9047   24.8751  C.2   1 <0>         0.0343
15   C15     -24.9138  -16.2245   31.3862  C.2   1 <0>         0.3368
16   C16     -31.7703   -8.7574   25.8830  C.2   1 <0>         0.3223
17   C17     -30.8321  -11.0924   26.2948  C.3   1 <0>         0.0005
18   C18     -32.7809  -11.9707   24.1752  C.3   1 <0>         0.0374
19   C19     -31.5227  -10.0951   25.3045  C.3   1 <0>         0.1101
20   N1      -31.7944  -14.2324   24.6681  N.2   1 <0>        -0.3567
21   N2      -32.8156  -10.6258   24.7937  N.4   1 <0>        -0.2984
22   O1      -23.9269  -17.1233   31.1722  O.co2 1 <0>        -0.4771
23   O2      -31.1240   -8.3329   26.9921  O.co2 1 <0>        -0.4795
24   O3      -24.9554  -15.6456   32.6063  O.co2 1 <0>        -0.2451
25   O4      -32.4168   -7.8269   25.1447  O.co2 1 <0>        -0.2492
26   H1      -26.6236  -16.5178   27.1693  H     1 <0>         0.0624
27   H2      -28.8828  -14.4233   30.0667  H     1 <0>         0.0624
28   H3      -29.1706  -17.2200   26.8979  H     1 <0>         0.0624
29   H4      -24.9333  -16.9459   28.7986  H     1 <0>         0.0626
30   H5      -27.2059  -14.8719   31.6960  H     1 <0>         0.0626
31   H6      -30.8602  -16.7899   25.2225  H     1 <0>         0.0638
32   H7      -29.0247  -13.0780   27.8108  H     1 <0>         0.0630
33   H8      -31.2519  -10.9905   27.2986  H     1 <0>         0.0334
34   H9      -29.7633  -10.8679   26.3478  H     1 <0>         0.0334
35   H10     -32.4497  -11.8804   23.1408  H     1 <0>         0.0488
36   H11     -33.7971  -12.3657   24.1946  H     1 <0>         0.0488
37   H12     -30.8592   -9.9553   24.4473  H     1 <0>         0.0579
38   H13     -33.1710   -9.9963   24.0691  H     1 <0>         0.1231
39   H14     -33.4822  -10.6444   25.5694  H     1 <0>         0.0000
@<TRIPOS>BOND
     1    1    4 ar
     2    1    9 ar
     3    2    5 ar
     4    2    9 ar
     5    3    6 ar
     6    3   10 ar
     7    4   11 ar
     8    5   11 ar
     9    6   13 ar
    10    7    8 ar
    11    7   10 ar
    12    8   12 1
    13    8   13 ar
    14    9   10 1
    15   11   15 1
    16   12   14 2
    17   12   17 1
    18   13   20 1
    19   14   18 1
    20   14   20 1
    21   15   22 1
    22   15   24 2
    23   16   19 1
    24   16   23 1
    25   16   25 2
    26   17   19 1
    27   18   21 1
    28   19   21 1
    29    1   26 1
    30    2   27 1
    31    3   28 1
    32    4   29 1
    33    5   30 1
    34    6   31 1
    35    7   32 1
    36   17   33 1
    37   17   34 1
    38   18   35 1
    39   18   36 1
    40   19   37 1
    41   21   38 1
    42   21   39 1
@<TRIPOS>PROPERTY_DATA
  Total_Score	| 7.6182
  Crash		| -3.7062
  Polar		| 3.9010

@<TRIPOS>MOLECULE
ligand_negative5_002
   39    42     0     0     0
SMALL
USER_CHARGES

@<TRIPOS>ATOM
1    C1      -28.0932  -14.9041   29.7786  C.ar  1 <0>        -0.0533
2    C2      -26.8812  -16.2418   28.1516  C.ar  1 <0>        -0.0533
3    C3      -29.5464  -16.2271   26.7105  C.ar  1 <0>        -0.0521
4    C4      -27.0876  -15.1514   30.7273  C.ar  1 <0>        -0.0472
5    C5      -25.8724  -16.4842   29.1050  C.ar  1 <0>        -0.0472
6    C6      -30.5216  -15.9694   25.7283  C.ar  1 <0>        -0.0372
7    C7      -29.5028  -13.8608   27.3269  C.ar  1 <0>        -0.0446
8    C8      -30.4764  -13.6159   26.3428  C.ar  1 <0>         0.0038
9    C9      -28.0054  -15.4469   28.4765  C.ar  1 <0>        -0.0178
10   C10     -29.0191  -15.1812   27.5139  C.ar  1 <0>        -0.0172
11   C11     -25.9624  -15.9436   30.4073  C.ar  1 <0>         0.0589
12   C12     -31.0987  -12.4543   25.9151  C.2   1 <0>        -0.0158
13   C13     -30.9652  -14.6504   25.5457  C.ar  1 <0>         0.0470
14   C14     -31.9613  -12.8411   24.8915  C.2   1 <0>         0.0343
15   C15     -24.9578  -16.1874   31.3690  C.2   1 <0>         0.3368
16   C16     -31.6446   -8.6815   25.8290  C.2   1 <0>         0.3223
17   C17     -30.9433  -11.0635   26.3782  C.3   1 <0>         0.0005
18   C18     -32.8043  -11.8860   24.1598  C.3   1 <0>         0.0374
19   C19     -31.4758  -10.0577   25.3105  C.3   1 <0>         0.1101
20   N1      -31.8447  -14.1602   24.6551  N.2   1 <0>        -0.3567
21   N2      -32.7656  -10.5114   24.7149  N.4   1 <0>        -0.2984
22   O1      -24.9767  -15.5761   32.5744  O.co2 1 <0>        -0.4771
23   O2      -32.3573   -7.7773   25.1145  O.co2 1 <0>        -0.4795
24   O3      -23.9640  -17.0768   31.1579  O.co2 1 <0>        -0.2451
25   O4      -30.9824   -8.2414   26.9212  O.co2 1 <0>        -0.2492
26   H1      -28.8963  -14.3307   30.0524  H     1 <0>         0.0624
27   H2      -26.7740  -16.6362   27.2130  H     1 <0>         0.0624
28   H3      -29.2347  -17.1905   26.8406  H     1 <0>         0.0624
29   H4      -27.1991  -14.7499   31.6590  H     1 <0>         0.0626
30   H5      -25.0662  -17.0476   28.8269  H     1 <0>         0.0626
31   H6      -30.8980  -16.7302   25.1625  H     1 <0>         0.0638
32   H7      -29.1405  -13.0795   27.8792  H     1 <0>         0.0630
33   H8      -31.4894  -10.9483   27.3168  H     1 <0>         0.0334
34   H9      -29.8868  -10.8599   26.5642  H     1 <0>         0.0334
35   H10     -32.4702  -11.8516   23.1225  H     1 <0>         0.0488
36   H11     -33.8391  -12.2298   24.1874  H     1 <0>         0.0488
37   H12     -30.7432  -10.0035   24.5027  H     1 <0>         0.0579
38   H13     -32.9964   -9.8859   23.9384  H     1 <0>         0.1231
39   H14     -33.4966  -10.4256   25.4256  H     1 <0>         0.0000
@<TRIPOS>BOND
     1    1    4 ar
     2    1    9 ar
     3    2    5 ar
     4    2    9 ar
     5    3    6 ar
     6    3   10 ar
     7    4   11 ar
     8    5   11 ar
     9    6   13 ar
    10    7    8 ar
    11    7   10 ar
    12    8   12 1
    13    8   13 ar
    14    9   10 1
    15   11   15 1
    16   12   14 2
    17   12   17 1
    18   13   20 1
    19   14   18 1
    20   14   20 1
    21   15   22 1
    22   15   24 2
    23   16   19 1
    24   16   23 1
    25   16   25 2
    26   17   19 1
    27   18   21 1
    28   19   21 1
    29    1   26 1
    30    2   27 1
    31    3   28 1
    32    4   29 1
    33    5   30 1
    34    6   31 1
    35    7   32 1
    36   17   33 1
    37   17   34 1
    38   18   35 1
    39   18   36 1
    40   19   37 1
    41   21   38 1
    42   21   39 1
@<TRIPOS>PROPERTY_DATA
  Total_Score	| 7.5304
  Crash		| -3.8610
  Polar		| 3.7701

@<TRIPOS>MOLECULE
ligand_negative9_000
   47    50     0     0     0
SMALL
USER_CHARGES

@<TRIPOS>ATOM
1    C1      -29.3576  -15.6652   26.4540  C.ar  1 <0>        -0.0563
2    C2      -30.4106  -15.4629   25.5432  C.ar  1 <0>        -0.0375
3    C3      -29.4083  -13.3155   27.0826  C.ar  1 <0>        -0.0489
4    C4      -30.4297  -13.1203   26.1433  C.ar  1 <0>         0.0035
5    C5      -28.8436  -14.6059   27.2520  C.ar  1 <0>        -0.0436
6    C6      -31.1228  -12.0237   25.7528  C.2   1 <0>        -0.0159
7    C7      -30.9223  -14.1691   25.3760  C.ar  1 <0>         0.0470
8    C8      -31.9677  -12.4405   24.7916  C.cat 1 <0>         0.0343
9    C9      -24.6554  -16.3000   31.3368  C.2   1 <0>         0.3078
10   C10     -31.8710   -8.3225   25.7650  C.2   1 <0>         0.3223
11   C11     -30.9610  -10.6475   26.1813  C.3   1 <0>         0.0005
12   C12     -32.9432  -11.5639   24.1818  C.3   1 <0>         0.0374
13   C13     -25.3616  -13.6425   28.6226  C.3   1 <0>        -0.0518
14   C14     -26.3815  -14.2563   27.6256  C.3   1 <0>        -0.0462
15   C15     -27.6010  -16.2097   28.8236  C.3   1 <0>        -0.0455
16   C16     -25.2872  -14.2556   30.0409  C.3   1 <0>        -0.0401
17   C17     -26.8227  -16.3477   30.1512  C.3   1 <0>        -0.0396
18   C18     -27.7299  -14.7625   28.2444  C.3   1 <0>        -0.0158
19   C19     -25.3565  -15.8154   30.1243  C.3   1 <0>         0.0563
20   C20     -32.1772   -9.7653   25.7664  C.3   1 <0>         0.1101
21   N1      -31.8330  -13.7056   24.5599  N.2   1 <0>        -0.3567
22   N2      -32.6302  -10.1305   24.4021  N.3   1 <0>        -0.2984
23   O1      -24.9485  -15.7830   32.5496  O.co2 1 <0>        -0.4804
24   O2      -32.7330   -7.4852   25.1473  O.co2 1 <0>        -0.4795
25   O3      -23.7981  -17.3416   31.2631  O.co2 1 <0>        -0.2507
26   O4      -30.9854   -7.7866   26.6339  O.co2 1 <0>        -0.2492
27   H1      -28.9758  -16.6088   26.5232  H     1 <0>         0.0621
28   H2      -30.7807  -16.2455   25.0092  H     1 <0>         0.0638
29   H3      -29.0655  -12.5152   27.6204  H     1 <0>         0.0627
30   H4      -30.8525  -10.6133   27.2691  H     1 <0>         0.0334
31   H5      -30.0402  -10.2710   25.7248  H     1 <0>         0.0334
32   H6      -32.9553  -11.7229   23.1039  H     1 <0>         0.0488
33   H7      -33.9313  -11.8015   24.5789  H     1 <0>         0.0488
34   H8      -24.3669  -13.7035   28.1722  H     1 <0>         0.0266
35   H9      -25.5885  -12.5779   28.7429  H     1 <0>         0.0266
36   H10     -26.5708  -13.4849   26.8704  H     1 <0>         0.0271
37   H11     -25.8993  -15.0840   27.0957  H     1 <0>         0.0271
38   H12     -27.1321  -16.8559   28.0802  H     1 <0>         0.0271
39   H13     -28.6009  -16.6062   29.0217  H     1 <0>         0.0271
40   H14     -24.3623  -13.8860   30.4917  H     1 <0>         0.0273
41   H15     -26.1007  -13.8384   30.6390  H     1 <0>         0.0273
42   H16     -27.3830  -15.8372   30.9445  H     1 <0>         0.0273
43   H17     -26.8136  -17.4186   30.4013  H     1 <0>         0.0273
44   H18     -27.9919  -14.1211   29.0934  H     1 <0>         0.0349
45   H19     -24.8477  -16.2458   29.2561  H     1 <0>         0.0413
46   H20     -33.0043   -9.9461   26.4579  H     1 <0>         0.0579
47   H21     -31.8979   -9.8691   23.7452  H     1 <0>         0.1231
@<TRIPOS>BOND
     1    1    2 ar
     2    1    5 ar
     3    2    7 ar
     4    3    4 ar
     5    3    5 ar
     6    4    6 2
     7    4    7 ar
     8    5   18 1
     9    6    8 1
    10    6   11 1
    11    7   21 2
    12    8   12 1
    13    8   21 1
    14    9   19 1
    15    9   23 1
    16    9   25 2
    17   10   20 1
    18   10   24 1
    19   10   26 2
    20   11   20 1
    21   12   22 1
    22   13   14 1
    23   13   16 1
    24   14   18 1
    25   15   17 1
    26   15   18 1
    27   16   19 1
    28   17   19 1
    29   20   22 1
    30    1   27 1
    31    2   28 1
    32    3   29 1
    33   11   30 1
    34   11   31 1
    35   12   32 1
    36   12   33 1
    37   13   34 1
    38   13   35 1
    39   14   36 1
    40   14   37 1
    41   15   38 1
    42   15   39 1
    43   16   40 1
    44   16   41 1
    45   17   42 1
    46   17   43 1
    47   18   44 1
    48   19   45 1
    49   20   46 1
    50   22   47 1
@<TRIPOS>PROPERTY_DATA
  Total_Score	| 8.1747
  Crash		| -4.5820
  Polar		| 4.6698

@<TRIPOS>MOLECULE
ligand_negative9_001
   47    50     0     0     0
SMALL
USER_CHARGES

@<TRIPOS>ATOM
1    C1      -29.3336  -15.7203   26.5128  C.ar  1 <0>        -0.0563
2    C2      -30.3832  -15.5068   25.5915  C.ar  1 <0>        -0.0375
3    C3      -29.4027  -13.3703   27.1734  C.ar  1 <0>        -0.0489
4    C4      -30.4296  -13.1731   26.2342  C.ar  1 <0>         0.0035
5    C5      -28.8420  -14.6631   27.3299  C.ar  1 <0>        -0.0436
6    C6      -31.1373  -12.0792   25.8531  C.2   1 <0>        -0.0159
7    C7      -30.9070  -14.2129   25.4497  C.ar  1 <0>         0.0470
8    C8      -31.9661  -12.4904   24.8722  C.cat 1 <0>         0.0343
9    C9      -24.6269  -16.5689   31.3837  C.2   1 <0>         0.3078
10   C10     -31.8511   -8.3577   25.8002  C.2   1 <0>         0.3223
11   C11     -30.9888  -10.7001   26.2925  C.3   1 <0>         0.0005
12   C12     -32.8664  -11.5927   24.1746  C.3   1 <0>         0.0374
13   C13     -25.3381  -13.7723   28.7486  C.3   1 <0>        -0.0518
14   C14     -26.3678  -14.3353   27.7335  C.3   1 <0>        -0.0462
15   C15     -27.6045  -16.2872   28.8912  C.3   1 <0>        -0.0455
16   C16     -25.2513  -14.4241   30.1518  C.3   1 <0>        -0.0401
17   C17     -26.8308  -16.4567   30.2228  C.3   1 <0>        -0.0396
18   C18     -27.7274  -14.8336   28.3318  C.3   1 <0>        -0.0158
19   C19     -25.3399  -15.9881   30.2132  C.3   1 <0>         0.0563
20   C20     -32.1638   -9.7975   25.7933  C.3   1 <0>         0.1101
21   N1      -31.8208  -13.7519   24.6338  N.2   1 <0>        -0.3567
22   N2      -32.5452  -10.1625   24.4066  N.3   1 <0>        -0.2984
23   O1      -24.8436  -17.8647   31.7155  O.co2 1 <0>        -0.4804
24   O2      -30.9765   -7.8236   26.6881  O.co2 1 <0>        -0.4795
25   O3      -23.7380  -15.8730   32.1336  O.co2 1 <0>        -0.2507
26   O4      -32.6896   -7.5173   25.1554  O.co2 1 <0>        -0.2492
27   H1      -28.9418  -16.6611   26.5729  H     1 <0>         0.0621
28   H2      -30.7411  -16.2789   25.0370  H     1 <0>         0.0638
29   H3      -29.0713  -12.5765   27.7267  H     1 <0>         0.0627
30   H4      -30.9563  -10.6646   27.3857  H     1 <0>         0.0334
31   H5      -30.0335  -10.3308   25.9041  H     1 <0>         0.0334
32   H6      -32.7799  -11.7664   23.1012  H     1 <0>         0.0488
33   H7      -33.8895  -11.8064   24.4836  H     1 <0>         0.0488
34   H8      -24.3513  -13.8288   28.2832  H     1 <0>         0.0266
35   H9      -25.5467  -12.7081   28.8979  H     1 <0>         0.0266
36   H10     -26.5488  -13.5432   27.0007  H     1 <0>         0.0271
37   H11     -25.9012  -15.1562   27.1813  H     1 <0>         0.0271
38   H12     -27.1336  -16.9288   28.1431  H     1 <0>         0.0271
39   H13     -28.6052  -16.6873   29.0714  H     1 <0>         0.0271
40   H14     -24.3164  -14.0616   30.5840  H     1 <0>         0.0273
41   H15     -26.0410  -13.9980   30.7716  H     1 <0>         0.0273
42   H16     -27.3688  -15.9229   31.0142  H     1 <0>         0.0273
43   H17     -26.8782  -17.5225   30.4624  H     1 <0>         0.0273
44   H18     -27.9843  -14.2049   29.1896  H     1 <0>         0.0349
45   H19     -24.8381  -16.3998   29.3312  H     1 <0>         0.0413
46   H20     -33.0345   -9.9643   26.4339  H     1 <0>         0.0579
47   H21     -31.7798   -9.9054   23.7870  H     1 <0>         0.1231
@<TRIPOS>BOND
     1    1    2 ar
     2    1    5 ar
     3    2    7 ar
     4    3    4 ar
     5    3    5 ar
     6    4    6 2
     7    4    7 ar
     8    5   18 1
     9    6    8 1
    10    6   11 1
    11    7   21 2
    12    8   12 1
    13    8   21 1
    14    9   19 1
    15    9   23 1
    16    9   25 2
    17   10   20 1
    18   10   24 1
    19   10   26 2
    20   11   20 1
    21   12   22 1
    22   13   14 1
    23   13   16 1
    24   14   18 1
    25   15   17 1
    26   15   18 1
    27   16   19 1
    28   17   19 1
    29   20   22 1
    30    1   27 1
    31    2   28 1
    32    3   29 1
    33   11   30 1
    34   11   31 1
    35   12   32 1
    36   12   33 1
    37   13   34 1
    38   13   35 1
    39   14   36 1
    40   14   37 1
    41   15   38 1
    42   15   39 1
    43   16   40 1
    44   16   41 1
    45   17   42 1
    46   17   43 1
    47   18   44 1
    48   19   45 1
    49   20   46 1
    50   22   47 1
@<TRIPOS>PROPERTY_DATA
  Total_Score	| 8.1728
  Crash		| -5.2292
  Polar		| 6.0468

@<TRIPOS>MOLECULE
ligand_negative9_002
   47    50     0     0     0
SMALL
USER_CHARGES

@<TRIPOS>ATOM
1    C1      -29.2491  -15.5908   26.4164  C.ar  1 <0>        -0.0563
2    C2      -30.3232  -15.4189   25.5221  C.ar  1 <0>        -0.0375
3    C3      -29.3641  -13.2336   27.0478  C.ar  1 <0>        -0.0489
4    C4      -30.4128  -13.0757   26.1332  C.ar  1 <0>         0.0035
5    C5      -28.7638  -14.5071   27.2063  C.ar  1 <0>        -0.0436
6    C6      -31.1556  -12.0003   25.7719  C.2   1 <0>        -0.0159
7    C7      -30.8859  -14.1415   25.3732  C.ar  1 <0>         0.0470
8    C8      -32.0098  -12.4402   24.8277  C.cat 1 <0>         0.0343
9    C9      -24.7068  -16.1708   31.4347  C.2   1 <0>         0.3078
10   C10     -31.9020   -8.3012   25.7369  C.2   1 <0>         0.3223
11   C11     -30.9936  -10.6200   26.1879  C.3   1 <0>         0.0005
12   C12     -32.9870  -11.5766   24.2025  C.3   1 <0>         0.0374
13   C13     -25.2112  -13.6782   28.5463  C.3   1 <0>        -0.0518
14   C14     -26.2811  -14.2677   27.5818  C.3   1 <0>        -0.0462
15   C15     -27.6389  -16.0512   28.9144  C.3   1 <0>        -0.0455
16   C16     -25.2257  -14.1795   30.0095  C.3   1 <0>        -0.0401
17   C17     -26.8693  -16.1617   30.2484  C.3   1 <0>        -0.0396
18   C18     -27.6627  -14.6478   28.2201  C.3   1 <0>        -0.0158
19   C19     -25.3768  -15.7242   30.1903  C.3   1 <0>         0.0563
20   C20     -32.2106   -9.7472   25.7492  C.3   1 <0>         0.1101
21   N1      -31.8437  -13.7052   24.5967  N.2   1 <0>        -0.3567
22   N2      -32.6732  -10.1349   24.3879  N.3   1 <0>        -0.2984
23   O1      -25.0901  -15.6757   32.6359  O.co2 1 <0>        -0.4804
24   O2      -31.0122   -7.7668   26.6015  O.co2 1 <0>        -0.4795
25   O3      -23.7968  -17.1720   31.3958  O.co2 1 <0>        -0.2507
26   O4      -32.7781   -7.4640   25.1310  O.co2 1 <0>        -0.2492
27   H1      -28.8169  -16.5159   26.4738  H     1 <0>         0.0621
28   H2      -30.6916  -16.2087   24.9919  H     1 <0>         0.0638
29   H3      -29.0393  -12.4239   27.5847  H     1 <0>         0.0627
30   H4      -30.9036  -10.5807   27.2750  H     1 <0>         0.0334
31   H5      -30.0672  -10.2509   25.7400  H     1 <0>         0.0334
32   H6      -32.9804  -11.7660   23.1320  H     1 <0>         0.0488
33   H7      -33.9740  -11.7988   24.6037  H     1 <0>         0.0488
34   H8      -24.2252  -13.8756   28.1259  H     1 <0>         0.0266
35   H9      -25.3314  -12.5933   28.5751  H     1 <0>         0.0266
36   H10     -26.4192  -13.5348   26.7773  H     1 <0>         0.0271
37   H11     -25.8643  -15.1577   27.1023  H     1 <0>         0.0271
38   H12     -27.2168  -16.7829   28.2217  H     1 <0>         0.0271
39   H13     -28.6660  -16.3536   29.1372  H     1 <0>         0.0271
40   H14     -24.3010  -13.8254   30.4775  H     1 <0>         0.0273
41   H15     -26.0429  -13.6734   30.5314  H     1 <0>         0.0273
42   H16     -27.3950  -15.5772   31.0145  H     1 <0>         0.0273
43   H17     -26.9212  -17.2119   30.5555  H     1 <0>         0.0273
44   H18     -27.8915  -13.9263   29.0172  H     1 <0>         0.0349
45   H19     -24.8921  -16.2309   29.3507  H     1 <0>         0.0413
46   H20     -33.0332   -9.9225   26.4409  H     1 <0>         0.0579
47   H21     -31.9437   -9.8830   23.7113  H     1 <0>         0.1231
@<TRIPOS>BOND
     1    1    2 ar
     2    1    5 ar
     3    2    7 ar
     4    3    4 ar
     5    3    5 ar
     6    4    6 2
     7    4    7 ar
     8    5   18 1
     9    6    8 1
    10    6   11 1
    11    7   21 2
    12    8   12 1
    13    8   21 1
    14    9   19 1
    15    9   23 1
    16    9   25 2
    17   10   20 1
    18   10   24 1
    19   10   26 2
    20   11   20 1
    21   12   22 1
    22   13   14 1
    23   13   16 1
    24   14   18 1
    25   15   17 1
    26   15   18 1
    27   16   19 1
    28   17   19 1
    29   20   22 1
    30    1   27 1
    31    2   28 1
    32    3   29 1
    33   11   30 1
    34   11   31 1
    35   12   32 1
    36   12   33 1
    37   13   34 1
    38   13   35 1
    39   14   36 1
    40   14   37 1
    41   15   38 1
    42   15   39 1
    43   16   40 1
    44   16   41 1
    45   17   42 1
    46   17   43 1
    47   18   44 1
    48   19   45 1
    49   20   46 1
    50   22   47 1
@<TRIPOS>PROPERTY_DATA
  Total_Score	| 7.9736
  Crash		| -4.7228
  Polar		| 4.6232

@<TRIPOS>MOLECULE
ligand_uncharged7_000
   33    35     0     0     0
SMALL
USER_CHARGES

@<TRIPOS>ATOM
1    C1      -30.1879  -16.0217   26.0145  C.ar  1 <0>        -0.0360
2    C2      -29.3009  -16.2142   27.0885  C.ar  1 <0>        -0.0385
3    C3      -29.3862  -13.8380   27.6361  C.ar  1 <0>        -0.0310
4    C4      -30.2825  -13.6558   26.5717  C.ar  1 <0>         0.0049
5    C5      -30.9456  -12.5405   26.0760  C.2   1 <0>        -0.0158
6    C6      -30.6761  -14.7322   25.7727  C.ar  1 <0>         0.0471
7    C7      -28.9035  -15.1392   27.9249  C.ar  1 <0>         0.0355
8    C8      -31.6912  -12.9946   24.9919  C.2   1 <0>         0.0343
9    C9      -31.8433   -8.8306   25.9579  C.2   1 <0>         0.3223
10   C10     -27.7048  -14.7926   30.0287  C.2   1 <0>         0.3013
11   C11     -30.9023  -11.1219   26.4921  C.3   1 <0>         0.0005
12   C12     -32.5299  -12.1127   24.1712  C.3   1 <0>         0.0374
13   C13     -32.0834  -10.2910   25.8855  C.3   1 <0>         0.1101
14   N1      -31.5075  -14.3121   24.8078  N.2   1 <0>        -0.3567
15   N2      -26.8785  -15.3732   30.8656  N.am  1 <0>        -0.3131
16   N3      -28.0571  -15.4712   28.9491  N.am  1 <0>        -0.2696
17   N4      -32.3112  -10.6734   24.4644  N.4   1 <0>        -0.2984
18   O1      -31.2778   -8.2935   27.0702  O.co2 1 <0>        -0.4795
19   O2      -32.5060   -7.9934   25.1252  O.co2 1 <0>        -0.2492
20   O3      -28.1060  -13.6777   30.3123  O.2   1 <0>        -0.2527
21   H1      -30.4820  -16.8099   25.4344  H     1 <0>         0.0639
22   H2      -28.9550  -17.1581   27.2669  H     1 <0>         0.0637
23   H3      -29.1003  -13.0261   28.1821  H     1 <0>         0.0643
24   H4      -30.9441  -11.0528   27.5782  H     1 <0>         0.0334
25   H5      -29.9479  -10.7095   26.1646  H     1 <0>         0.0334
26   H6      -32.2740  -12.2777   23.1243  H     1 <0>         0.0488
27   H7      -33.5815  -12.3655   24.3253  H     1 <0>         0.0488
28   H8      -32.9999  -10.5117   26.4413  H     1 <0>         0.0579
29   H9      -26.5579  -16.2674   30.6851  H     1 <0>         0.1465
30   H10     -26.5935  -14.9093   31.6660  H     1 <0>         0.1465
31   H11     -27.7034  -16.3721   28.9100  H     1 <0>         0.1564
32   H12     -31.4852  -10.3779   23.9447  H     1 <0>         0.1231
33   H13     -33.1198  -10.1681   24.0930  H     1 <0>         0.0000
@<TRIPOS>BOND
     1    1    2 ar
     2    1    6 ar
     3    2    7 ar
     4    3    4 ar
     5    3    7 ar
     6    4    5 1
     7    4    6 ar
     8    5    8 2
     9    5   11 1
    10    6   14 1
    11    7   16 1
    12    8   12 1
    13    8   14 1
    14    9   13 1
    15    9   18 1
    16    9   19 2
    17   10   15 am
    18   10   16 am
    19   10   20 2
    20   11   13 1
    21   12   17 1
    22   13   17 1
    23    1   21 1
    24    2   22 1
    25    3   23 1
    26   11   24 1
    27   11   25 1
    28   12   26 1
    29   12   27 1
    30   13   28 1
    31   15   29 1
    32   15   30 1
    33   16   31 1
    34   17   32 1
    35   17   33 1
@<TRIPOS>PROPERTY_DATA
  Total_Score	| 7.8220
  Crash		| -2.3615
  Polar		| 5.3333

@<TRIPOS>MOLECULE
ligand_uncharged7_001
   33    35     0     0     0
SMALL
USER_CHARGES

@<TRIPOS>ATOM
1    C1      -29.4450  -15.9916   26.4290  C.ar  1 <0>        -0.0360
2    C2      -28.4974  -16.0693   27.4696  C.ar  1 <0>        -0.0385
3    C3      -28.7877  -13.6953   27.9537  C.ar  1 <0>        -0.0310
4    C4      -29.7356  -13.6153   26.9062  C.ar  1 <0>         0.0049
5    C5      -30.5196  -12.5897   26.3715  C.2   1 <0>        -0.0158
6    C6      -30.0475  -14.7560   26.1637  C.ar  1 <0>         0.0471
7    C7      -28.1581  -14.9355   28.2577  C.ar  1 <0>         0.0355
8    C8      -31.2510  -13.1669   25.3294  C.2   1 <0>         0.0343
9    C9      -31.7867   -8.9872   26.0418  C.2   1 <0>         0.3223
10   C10     -26.5862  -15.9605   29.8635  C.2   1 <0>         0.3013
11   C11     -30.6121  -11.1451   26.6912  C.3   1 <0>         0.0005
12   C12     -32.2144  -12.4285   24.4973  C.3   1 <0>         0.0374
13   C13     -31.8803  -10.4691   26.0586  C.3   1 <0>         0.1101
14   N1      -30.9476  -14.4705   25.2096  N.2   1 <0>        -0.3567
15   N2      -25.7344  -15.7077   30.8307  N.am  1 <0>        -0.3131
16   N3      -27.2441  -14.9510   29.2921  N.am  1 <0>        -0.2696
17   N4      -32.0931  -10.9617   24.6704  N.4   1 <0>        -0.2984
18   O1      -31.2738   -8.3370   27.1108  O.co2 1 <0>        -0.4795
19   O2      -32.4955   -8.2461   25.1526  O.co2 1 <0>        -0.2492
20   O3      -26.7084  -17.1351   29.5610  O.2   1 <0>        -0.2527
21   H1      -29.6890  -16.8167   25.8760  H     1 <0>         0.0639
22   H2      -28.0510  -16.9689   27.6252  H     1 <0>         0.0637
23   H3      -28.5578  -12.8578   28.4925  H     1 <0>         0.0643
24   H4      -30.6433  -11.0158   27.7744  H     1 <0>         0.0334
25   H5      -29.7049  -10.6645   26.3148  H     1 <0>         0.0334
26   H6      -32.0307  -12.6611   23.4461  H     1 <0>         0.0488
27   H7      -33.2281  -12.7450   24.7524  H     1 <0>         0.0488
28   H8      -32.7618  -10.7380   26.6502  H     1 <0>         0.0579
29   H9      -25.5744  -14.8014   31.1259  H     1 <0>         0.1465
30   H10     -25.2451  -16.4370   31.2456  H     1 <0>         0.1465
31   H11     -27.0487  -14.0837   29.6769  H     1 <0>         0.1564
32   H12     -31.2945  -10.6506   24.1184  H     1 <0>         0.1231
33   H13     -32.9414  -10.5386   24.2837  H     1 <0>         0.0000
@<TRIPOS>BOND
     1    1    2 ar
     2    1    6 ar
     3    2    7 ar
     4    3    4 ar
     5    3    7 ar
     6    4    5 1
     7    4    6 ar
     8    5    8 2
     9    5   11 1
    10    6   14 1
    11    7   16 1
    12    8   12 1
    13    8   14 1
    14    9   13 1
    15    9   18 1
    16    9   19 2
    17   10   15 am
    18   10   16 am
    19   10   20 2
    20   11   13 1
    21   12   17 1
    22   13   17 1
    23    1   21 1
    24    2   22 1
    25    3   23 1
    26   11   24 1
    27   11   25 1
    28   12   26 1
    29   12   27 1
    30   13   28 1
    31   15   29 1
    32   15   30 1
    33   16   31 1
    34   17   32 1
    35   17   33 1
@<TRIPOS>PROPERTY_DATA
  Total_Score	| 7.2985
  Crash		| -1.1812
  Polar		| 4.7770

@<TRIPOS>MOLECULE
ligand_uncharged7_002
   33    35     0     0     0
SMALL
USER_CHARGES

@<TRIPOS>ATOM
1    C1      -29.4894  -15.9776   26.3779  C.ar  1 <0>        -0.0360
2    C2      -28.5128  -16.0648   27.3877  C.ar  1 <0>        -0.0385
3    C3      -28.7959  -13.6953   27.8938  C.ar  1 <0>        -0.0310
4    C4      -29.7716  -13.6025   26.8790  C.ar  1 <0>         0.0049
5    C5      -30.5693  -12.5700   26.3684  C.2   1 <0>        -0.0158
6    C6      -30.1005  -14.7385   26.1365  C.ar  1 <0>         0.0471
7    C7      -28.1477  -14.9329   28.1678  C.ar  1 <0>         0.0355
8    C8      -31.3198  -13.1447   25.3392  C.2   1 <0>         0.0343
9    C9      -31.7777   -8.9479   26.0165  C.2   1 <0>         0.3223
10   C10     -26.4692  -15.9262   29.6824  C.2   1 <0>         0.3013
11   C11     -30.6500  -11.1240   26.6907  C.3   1 <0>         0.0005
12   C12     -32.2868  -12.3969   24.5200  C.3   1 <0>         0.0374
13   C13     -31.9053  -10.4282   26.0538  C.3   1 <0>         0.1101
14   N1      -31.0182  -14.4476   25.2028  N.2   1 <0>        -0.3567
15   N2      -25.6035  -15.6433   30.6350  N.am  1 <0>        -0.3131
16   N3      -27.1984  -14.9395   29.1672  N.am  1 <0>        -0.2696
17   N4      -32.1431  -10.9311   24.6747  N.4   1 <0>        -0.2984
18   O1      -32.4600   -8.2041   25.1112  O.co2 1 <0>        -0.4795
19   O2      -31.2101   -8.2869   27.0509  O.co2 1 <0>        -0.2492
20   O3      -26.5369  -17.0944   29.3385  O.2   1 <0>        -0.2527
21   H1      -29.7507  -16.7965   25.8234  H     1 <0>         0.0639
22   H2      -28.0626  -16.9593   27.5387  H     1 <0>         0.0637
23   H3      -28.5545  -12.8590   28.4308  H     1 <0>         0.0643
24   H4      -30.6839  -10.9962   27.7741  H     1 <0>         0.0334
25   H5      -29.7345  -10.6562   26.3207  H     1 <0>         0.0334
26   H6      -32.1234  -12.6398   23.4692  H     1 <0>         0.0488
27   H7      -33.3004  -12.6950   24.7910  H     1 <0>         0.0488
28   H8      -32.7886  -10.6674   26.6553  H     1 <0>         0.0579
29   H9      -25.4970  -14.7320   30.9498  H     1 <0>         0.1465
30   H10     -25.0569  -16.3486   31.0186  H     1 <0>         0.1465
31   H11     -27.0328  -14.0758   29.5694  H     1 <0>         0.1564
32   H12     -31.3497  -10.6357   24.1087  H     1 <0>         0.1231
33   H13     -32.9909  -10.4989   24.2956  H     1 <0>         0.0000
@<TRIPOS>BOND
     1    1    2 ar
     2    1    6 ar
     3    2    7 ar
     4    3    4 ar
     5    3    7 ar
     6    4    5 1
     7    4    6 ar
     8    5    8 2
     9    5   11 1
    10    6   14 1
    11    7   16 1
    12    8   12 1
    13    8   14 1
    14    9   13 1
    15    9   18 1
    16    9   19 2
    17   10   15 am
    18   10   16 am
    19   10   20 2
    20   11   13 1
    21   12   17 1
    22   13   17 1
    23    1   21 1
    24    2   22 1
    25    3   23 1
    26   11   24 1
    27   11   25 1
    28   12   26 1
    29   12   27 1
    30   13   28 1
    31   15   29 1
    32   15   30 1
    33   16   31 1
    34   17   32 1
    35   17   33 1
@<TRIPOS>PROPERTY_DATA
  Total_Score	| 7.1928
  Crash		| -1.0697
  Polar		| 4.9791

@<TRIPOS>MOLECULE
ligand_hydrophobic13_000
   37    39     0     0     0
SMALL
USER_CHARGES

@<TRIPOS>ATOM
1    C1      -28.5123  -15.8315   27.6423  C.ar  1 <0>        -0.0563
2    C2      -29.4295  -15.8333   26.5694  C.ar  1 <0>        -0.0375
3    C3      -28.8240  -13.4263   27.9493  C.ar  1 <0>        -0.0488
4    C4      -29.7576  -13.4442   26.8941  C.ar  1 <0>         0.0035
5    C5      -30.5214  -12.4509   26.2936  C.2   1 <0>        -0.0159
6    C6      -28.1793  -14.6317   28.3270  C.ar  1 <0>        -0.0429
7    C7      -30.0459  -14.6246   26.2113  C.ar  1 <0>         0.0470
8    C8      -31.2606  -13.0751   25.2922  C.2   1 <0>         0.0343
9    C9      -25.0578  -14.9532   28.0743  C.2   1 <0>        -0.0907
10   C10     -25.9043  -15.3005   29.0582  C.2   1 <0>        -0.0839
11   C11     -31.7009   -8.8458   25.7953  C.2   1 <0>         0.3223
12   C12     -30.6069  -11.0049   26.5926  C.3   1 <0>         0.0005
13   C13     -32.2158  -12.3548   24.4303  C.3   1 <0>         0.0374
14   C14     -31.2929  -10.2193   25.4249  C.3   1 <0>         0.1101
15   C15     -25.1968  -13.8072   27.1965  C.3   1 <0>        -0.0468
16   C16     -27.1554  -14.6347   29.4136  C.3   1 <0>        -0.0095
17   N1      -30.9354  -14.3877   25.2303  N.2   1 <0>        -0.3567
18   N2      -32.4720  -10.9651   24.8993  N.4   1 <0>        -0.2984
19   O1      -32.3861   -8.0962   24.8995  O.co2 1 <0>        -0.4795
20   O2      -31.1092   -8.1918   26.8212  O.co2 1 <0>        -0.2492
21   H1      -28.0586  -16.7110   27.8968  H     1 <0>         0.0621
22   H2      -29.6310  -16.6942   26.0580  H     1 <0>         0.0638
23   H3      -28.6185  -12.5470   28.4277  H     1 <0>         0.0627
24   H4      -24.2660  -15.5398   27.9280  H     1 <0>         0.0566
25   H5      -25.6691  -16.1134   29.5844  H     1 <0>         0.0572
26   H6      -31.1735  -10.8849   27.5177  H     1 <0>         0.0334
27   H7      -29.6002  -10.6075   26.7493  H     1 <0>         0.0334
28   H8      -31.8335  -12.3352   23.4086  H     1 <0>         0.0488
29   H9      -33.1691  -12.8880   24.4202  H     1 <0>         0.0488
30   H10     -30.5675  -10.1221   24.6148  H     1 <0>         0.0579
31   H11     -26.1149  -13.8805   26.6138  H     1 <0>         0.0272
32   H12     -25.2115  -12.8843   27.7792  H     1 <0>         0.0272
33   H13     -24.3601  -13.7583   26.4957  H     1 <0>         0.0272
34   H14     -26.9187  -13.6190   29.7447  H     1 <0>         0.0356
35   H15     -27.5987  -15.1473   30.2721  H     1 <0>         0.0356
36   H16     -32.8642  -10.4461   24.1072  H     1 <0>         0.1231
37   H17     -33.1770  -11.0017   25.6391  H     1 <0>         0.0000
@<TRIPOS>BOND
     1    1    2 ar
     2    1    6 ar
     3    2    7 ar
     4    3    4 ar
     5    3    6 ar
     6    4    5 1
     7    4    7 ar
     8    5    8 2
     9    5   12 1
    10    6   16 1
    11    7   17 1
    12    8   13 1
    13    8   17 1
    14    9   10 2
    15    9   15 1
    16   10   16 1
    17   11   14 1
    18   11   19 1
    19   11   20 2
    20   12   14 1
    21   13   18 1
    22   14   18 1
    23    1   21 1
    24    2   22 1
    25    3   23 1
    26    9   24 1
    27   10   25 1
    28   12   26 1
    29   12   27 1
    30   13   28 1
    31   13   29 1
    32   14   30 1
    33   15   31 1
    34   15   32 1
    35   15   33 1
    36   16   34 1
    37   16   35 1
    38   18   36 1
    39   18   37 1
@<TRIPOS>PROPERTY_DATA
  Total_Score	| 7.9270
  Crash		| -1.1385
  Polar		| 4.0832

@<TRIPOS>MOLECULE
ligand_hydrophobic13_001
   37    39     0     0     0
SMALL
USER_CHARGES

@<TRIPOS>ATOM
1    C1      -29.1628  -16.1277   27.1451  C.ar  1 <0>        -0.0563
2    C2      -30.1032  -15.9358   26.1154  C.ar  1 <0>        -0.0375
3    C3      -29.2402  -13.7515   27.7153  C.ar  1 <0>        -0.0488
4    C4      -30.1845  -13.5620   26.6802  C.ar  1 <0>         0.0035
5    C5      -30.8480  -12.4465   26.1733  C.2   1 <0>        -0.0159
6    C6      -28.7130  -15.0495   27.9511  C.ar  1 <0>        -0.0429
7    C7      -30.5967  -14.6440   25.8984  C.ar  1 <0>         0.0470
8    C8      -31.6457  -12.9194   25.1283  C.2   1 <0>         0.0343
9    C9      -25.4068  -16.2831   29.1946  C.2   1 <0>        -0.0907
10   C10     -26.3985  -15.7292   28.4798  C.2   1 <0>        -0.0839
11   C11     -31.5841   -8.7043   25.7891  C.2   1 <0>         0.3223
12   C12     -30.7859  -11.0119   26.5441  C.3   1 <0>         0.0005
13   C13     -32.5010  -12.0512   24.3005  C.3   1 <0>         0.0374
14   C14     -31.3060  -10.1010   25.3859  C.3   1 <0>         0.1101
15   C15     -25.4734  -16.6350   30.5982  C.3   1 <0>        -0.0468
16   C16     -27.6965  -15.3155   29.0084  C.3   1 <0>        -0.0095
17   N1      -31.4509  -14.2373   24.9487  N.2   1 <0>        -0.3567
18   N2      -32.5500  -10.6504   24.7784  N.4   1 <0>        -0.2984
19   O1      -32.3229   -7.9062   24.9775  O.co2 1 <0>        -0.4795
20   O2      -30.8549   -8.0955   26.7520  O.co2 1 <0>        -0.2492
21   H1      -28.7913  -17.0681   27.2932  H     1 <0>         0.0621
22   H2      -30.4087  -16.7196   25.5357  H     1 <0>         0.0638
23   H3      -28.9305  -12.9540   28.2712  H     1 <0>         0.0627
24   H4      -24.5567  -16.4974   28.7143  H     1 <0>         0.0566
25   H5      -26.2235  -15.5936   27.5054  H     1 <0>         0.0572
26   H6      -31.3878  -10.8617   27.4424  H     1 <0>         0.0334
27   H7      -29.7504  -10.7443   26.7748  H     1 <0>         0.0334
28   H8      -32.1273  -12.0685   23.2740  H     1 <0>         0.0488
29   H9      -33.5221  -12.4398   24.3022  H     1 <0>         0.0488
30   H10     -30.5317  -10.0664   24.6146  H     1 <0>         0.0579
31   H11     -25.7314  -15.7642   31.2006  H     1 <0>         0.0272
32   H12     -26.2213  -17.4151   30.7496  H     1 <0>         0.0272
33   H13     -24.5079  -17.0159   30.9406  H     1 <0>         0.0272
34   H14     -27.5477  -14.4326   29.6340  H     1 <0>         0.0356
35   H15     -28.0897  -16.1072   29.6514  H     1 <0>         0.0356
36   H16     -32.7994  -10.0735   23.9746  H     1 <0>         0.1231
37   H17     -33.2954  -10.5759   25.4744  H     1 <0>         0.0000
@<TRIPOS>BOND
     1    1    2 ar
     2    1    6 ar
     3    2    7 ar
     4    3    4 ar
     5    3    6 ar
     6    4    5 1
     7    4    7 ar
     8    5    8 2
     9    5   12 1
    10    6   16 1
    11    7   17 1
    12    8   13 1
    13    8   17 1
    14    9   10 2
    15    9   15 1
    16   10   16 1
    17   11   14 1
    18   11   19 1
    19   11   20 2
    20   12   14 1
    21   13   18 1
    22   14   18 1
    23    1   21 1
    24    2   22 1
    25    3   23 1
    26    9   24 1
    27   10   25 1
    28   12   26 1
    29   12   27 1
    30   13   28 1
    31   13   29 1
    32   14   30 1
    33   15   31 1
    34   15   32 1
    35   15   33 1
    36   16   34 1
    37   16   35 1
    38   18   36 1
    39   18   37 1
@<TRIPOS>PROPERTY_DATA
  Total_Score	| 7.9152
  Crash		| -1.8417
  Polar		| 3.9757

@<TRIPOS>MOLECULE
ligand_hydrophobic13_002
   37    39     0     0     0
SMALL
USER_CHARGES

@<TRIPOS>ATOM
1    C1      -28.3284  -15.7177   27.8895  C.ar  1 <0>        -0.0563
2    C2      -29.2470  -15.7904   26.8209  C.ar  1 <0>        -0.0375
3    C3      -28.8058  -13.3365   28.1792  C.ar  1 <0>        -0.0488
4    C4      -29.6818  -13.4124   27.0828  C.ar  1 <0>         0.0035
5    C5      -30.4401  -12.4486   26.4324  C.2   1 <0>        -0.0159
6    C6      -28.0802  -14.4913   28.5635  C.ar  1 <0>        -0.0429
7    C7      -29.9006  -14.6161   26.4062  C.ar  1 <0>         0.0470
8    C8      -31.1242  -13.1140   25.4184  C.2   1 <0>         0.0343
9    C9      -25.1575  -13.0335   28.7155  C.2   1 <0>        -0.0907
10   C10     -25.7020  -14.1899   29.1326  C.2   1 <0>        -0.0839
11   C11     -31.6610   -8.8750   25.8330  C.2   1 <0>         0.3223
12   C12     -30.5307  -10.9892   26.6710  C.3   1 <0>         0.0005
13   C13     -32.0745  -12.4219   24.5220  C.3   1 <0>         0.0374
14   C14     -31.2217  -10.2415   25.4852  C.3   1 <0>         0.1101
15   C15     -25.8196  -11.7453   28.6561  C.3   1 <0>        -0.0468
16   C16     -27.0534  -14.4002   29.6378  C.3   1 <0>        -0.0095
17   N1      -30.7602  -14.4131   25.3927  N.2   1 <0>        -0.3567
18   N2      -32.3782  -11.0335   24.9735  N.4   1 <0>        -0.2984
19   O1      -31.1220   -8.2062   26.8775  O.co2 1 <0>        -0.4795
20   O2      -32.3763   -8.1496   24.9466  O.co2 1 <0>        -0.2492
21   H1      -27.8197  -16.5576   28.1548  H     1 <0>         0.0621
22   H2      -29.4025  -16.6733   26.3256  H     1 <0>         0.0638
23   H3      -28.6793  -12.4462   28.6648  H     1 <0>         0.0627
24   H4      -24.2042  -13.0550   28.4307  H     1 <0>         0.0566
25   H5      -25.1073  -14.9853   29.1220  H     1 <0>         0.0572
26   H6      -31.0884  -10.8419   27.6025  H     1 <0>         0.0334
27   H7      -29.5208  -10.5863   26.8068  H     1 <0>         0.0334
28   H8      -31.6702  -12.3985   23.5116  H     1 <0>         0.0488
29   H9      -33.0099  -12.9803   24.5029  H     1 <0>         0.0488
30   H10     -30.4974  -10.1478   24.6748  H     1 <0>         0.0579
31   H11     -26.6379  -11.7587   27.9365  H     1 <0>         0.0272
32   H12     -26.2159  -11.4752   29.6352  H     1 <0>         0.0272
33   H13     -25.1113  -10.9680   28.3570  H     1 <0>         0.0272
34   H14     -27.2797  -13.5997   30.3495  H     1 <0>         0.0356
35   H15     -27.0844  -15.3340   30.2104  H     1 <0>         0.0356
36   H16     -32.7941  -10.5398   24.1777  H     1 <0>         0.1231
37   H17     -33.0785  -11.0872   25.7181  H     1 <0>         0.0000
@<TRIPOS>BOND
     1    1    2 ar
     2    1    6 ar
     3    2    7 ar
     4    3    4 ar
     5    3    6 ar
     6    4    5 1
     7    4    7 ar
     8    5    8 2
     9    5   12 1
    10    6   16 1
    11    7   17 1
    12    8   13 1
    13    8   17 1
    14    9   10 2
    15    9   15 1
    16   10   16 1
    17   11   14 1
    18   11   19 1
    19   11   20 2
    20   12   14 1
    21   13   18 1
    22   14   18 1
    23    1   21 1
    24    2   22 1
    25    3   23 1
    26    9   24 1
    27   10   25 1
    28   12   26 1
    29   12   27 1
    30   13   28 1
    31   13   29 1
    32   14   30 1
    33   15   31 1
    34   15   32 1
    35   15   33 1
    36   16   34 1
    37   16   35 1
    38   18   36 1
    39   18   37 1
@<TRIPOS>PROPERTY_DATA
  Total_Score	| 7.8431
  Crash		| -1.1697
  Polar		| 4.0229

@<TRIPOS>MOLECULE
ligand_hydrophobic15_000
   37    39     0     0     0
SMALL
USER_CHARGES

@<TRIPOS>ATOM
1    C1      -29.3443  -16.2192   26.9262  C.ar  1 <0>        -0.0526
2    C2      -30.2847  -15.9976   25.9036  C.ar  1 <0>        -0.0372
3    C3      -29.3596  -13.8455   27.5042  C.ar  1 <0>        -0.0452
4    C4      -30.2796  -13.6312   26.4607  C.ar  1 <0>         0.0038
5    C5      -28.8684  -15.1544   27.7443  C.ar  1 <0>        -0.0246
6    C6      -30.9207  -12.4913   25.9887  C.2   1 <0>        -0.0158
7    C7      -30.7378  -14.6920   25.6797  C.ar  1 <0>         0.0470
8    C8      -31.7539  -12.9219   24.9576  C.2   1 <0>         0.0343
9    C9      -27.9647  -15.3791   28.7852  C.2   1 <0>        -0.0585
10   C10     -26.9306  -16.2434   28.7345  C.2   1 <0>        -0.0837
11   C11     -31.8909   -8.8111   26.1342  C.2   1 <0>         0.3223
12   C12     -30.7841  -11.0716   26.3705  C.3   1 <0>         0.0005
13   C13     -32.6626  -12.0148   24.2329  C.3   1 <0>         0.0374
14   C14     -32.0777  -10.2727   25.9985  C.3   1 <0>         0.1101
15   C15     -25.7328  -15.4557   30.8648  C.3   1 <0>        -0.0618
16   C16     -26.0732  -16.5852   29.8564  C.3   1 <0>        -0.0373
17   N1      -31.6169  -14.2455   24.7649  N.2   1 <0>        -0.3567
18   N2      -32.5300  -10.5865   24.6168  N.4   1 <0>        -0.2984
19   O1      -32.4262   -7.9300   25.2577  O.co2 1 <0>        -0.4795
20   O2      -31.2144   -8.3182   27.1956  O.co2 1 <0>        -0.2492
21   H1      -29.0183  -17.1760   27.0855  H     1 <0>         0.0624
22   H2      -30.6441  -16.7773   25.3480  H     1 <0>         0.0638
23   H3      -29.0396  -13.0507   28.0617  H     1 <0>         0.0630
24   H4      -28.0604  -14.8140   29.5999  H     1 <0>         0.0620
25   H5      -26.7682  -16.7241   27.8761  H     1 <0>         0.0572
26   H6      -30.5903  -10.9905   27.4449  H     1 <0>         0.0334
27   H7      -29.9180  -10.6679   25.8369  H     1 <0>         0.0334
28   H8      -32.4386  -12.0944   23.1701  H     1 <0>         0.0488
29   H9      -33.6940  -12.3355   24.3992  H     1 <0>         0.0488
30   H10     -32.8726  -10.5657   26.6913  H     1 <0>         0.0579
31   H11     -26.6084  -15.1947   31.4646  H     1 <0>         0.0233
32   H12     -25.3723  -14.5645   30.3458  H     1 <0>         0.0233
33   H13     -24.9546  -15.8062   31.5470  H     1 <0>         0.0233
34   H14     -25.1267  -16.9688   29.4648  H     1 <0>         0.0305
35   H15     -26.5434  -17.3959   30.4138  H     1 <0>         0.0305
36   H16     -31.8638  -10.1572   23.9757  H     1 <0>         0.1231
37   H17     -33.4416  -10.1444   24.4839  H     1 <0>         0.0000
@<TRIPOS>BOND
     1    1    2 ar
     2    1    5 ar
     3    2    7 ar
     4    3    4 ar
     5    3    5 ar
     6    4    6 1
     7    4    7 ar
     8    5    9 1
     9    6    8 2
    10    6   12 1
    11    7   17 1
    12    8   13 1
    13    8   17 1
    14    9   10 2
    15   10   16 1
    16   11   14 1
    17   11   19 1
    18   11   20 2
    19   12   14 1
    20   13   18 1
    21   14   18 1
    22   15   16 1
    23    1   21 1
    24    2   22 1
    25    3   23 1
    26    9   24 1
    27   10   25 1
    28   12   26 1
    29   12   27 1
    30   13   28 1
    31   13   29 1
    32   14   30 1
    33   15   31 1
    34   15   32 1
    35   15   33 1
    36   16   34 1
    37   16   35 1
    38   18   36 1
    39   18   37 1
@<TRIPOS>PROPERTY_DATA
  Total_Score	| 9.5941
  Crash		| -1.6957
  Polar		| 4.3906

@<TRIPOS>MOLECULE
ligand_hydrophobic15_001
   37    39     0     0     0
SMALL
USER_CHARGES

@<TRIPOS>ATOM
1    C1      -28.3609  -15.8165   27.4759  C.ar  1 <0>        -0.0526
2    C2      -29.3397  -15.8110   26.4602  C.ar  1 <0>        -0.0372
3    C3      -28.7310  -13.4378   27.8862  C.ar  1 <0>        -0.0452
4    C4      -29.7124  -13.4407   26.8760  C.ar  1 <0>         0.0038
5    C5      -28.0461  -14.6400   28.2187  C.ar  1 <0>        -0.0246
6    C6      -30.5471  -12.4560   26.3565  C.2   1 <0>        -0.0158
7    C7      -30.0041  -14.6108   26.1751  C.ar  1 <0>         0.0470
8    C8      -31.2877  -13.0759   25.3493  C.2   1 <0>         0.0343
9    C9      -27.0741  -14.6203   29.2311  C.2   1 <0>        -0.0585
10   C10     -26.5907  -15.6925   29.8850  C.2   1 <0>        -0.0837
11   C11     -31.8602   -8.8889   26.0242  C.2   1 <0>         0.3223
12   C12     -30.6683  -11.0153   26.6798  C.3   1 <0>         0.0005
13   C13     -32.2919  -12.3690   24.5411  C.3   1 <0>         0.0374
14   C14     -31.9573  -10.3701   26.0669  C.3   1 <0>         0.1101
15   C15     -24.6942  -16.9351   30.9233  C.3   1 <0>        -0.0618
16   C16     -25.5320  -15.6331   30.8815  C.3   1 <0>        -0.0373
17   N1      -30.9409  -14.3723   25.2427  N.2   1 <0>        -0.3567
18   N2      -32.2105  -10.8950   24.6970  N.4   1 <0>        -0.2984
19   O1      -32.5449   -8.1609   25.1102  O.co2 1 <0>        -0.4795
20   O2      -31.2881   -8.2186   27.0497  O.co2 1 <0>        -0.2492
21   H1      -27.8624  -16.6919   27.6413  H     1 <0>         0.0624
22   H2      -29.5554  -16.6617   25.9351  H     1 <0>         0.0638
23   H3      -28.5318  -12.5640   28.3779  H     1 <0>         0.0630
24   H4      -26.7325  -13.7284   29.5184  H     1 <0>         0.0620
25   H5      -27.0263  -16.5723   29.7472  H     1 <0>         0.0572
26   H6      -30.6864  -10.8889   27.7648  H     1 <0>         0.0334
27   H7      -29.7764  -10.5176   26.2905  H     1 <0>         0.0334
28   H8      -32.1242  -12.6037   23.4885  H     1 <0>         0.0488
29   H9      -33.2868  -12.7191   24.8215  H     1 <0>         0.0488
30   H10     -32.8185  -10.6272   26.6945  H     1 <0>         0.0579
31   H11     -24.2095  -17.1064   29.9587  H     1 <0>         0.0233
32   H12     -25.3289  -17.7928   31.1533  H     1 <0>         0.0233
33   H13     -23.9208  -16.8629   31.6896  H     1 <0>         0.0233
34   H14     -25.9861  -15.4721   31.8630  H     1 <0>         0.0305
35   H15     -24.8569  -14.7927   30.6915  H     1 <0>         0.0305
36   H16     -31.4397  -10.5733   24.1132  H     1 <0>         0.1231
37   H17     -33.0791  -10.4954   24.3337  H     1 <0>         0.0000
@<TRIPOS>BOND
     1    1    2 ar
     2    1    5 ar
     3    2    7 ar
     4    3    4 ar
     5    3    5 ar
     6    4    6 1
     7    4    7 ar
     8    5    9 1
     9    6    8 2
    10    6   12 1
    11    7   17 1
    12    8   13 1
    13    8   17 1
    14    9   10 2
    15   10   16 1
    16   11   14 1
    17   11   19 1
    18   11   20 2
    19   12   14 1
    20   13   18 1
    21   14   18 1
    22   15   16 1
    23    1   21 1
    24    2   22 1
    25    3   23 1
    26    9   24 1
    27   10   25 1
    28   12   26 1
    29   12   27 1
    30   13   28 1
    31   13   29 1
    32   14   30 1
    33   15   31 1
    34   15   32 1
    35   15   33 1
    36   16   34 1
    37   16   35 1
    38   18   36 1
    39   18   37 1
@<TRIPOS>PROPERTY_DATA
  Total_Score	| 8.8103
  Crash		| -1.2172
  Polar		| 4.6659

@<TRIPOS>MOLECULE
ligand_hydrophobic15_002
   37    39     0     0     0
SMALL
USER_CHARGES

@<TRIPOS>ATOM
1    C1      -29.3225  -16.2562   26.9587  C.ar  1 <0>        -0.0526
2    C2      -30.2597  -16.0437   25.9290  C.ar  1 <0>        -0.0372
3    C3      -29.3682  -13.8824   27.5243  C.ar  1 <0>        -0.0452
4    C4      -30.2927  -13.6796   26.4858  C.ar  1 <0>         0.0038
5    C5      -28.8692  -15.1842   27.7734  C.ar  1 <0>        -0.0246
6    C6      -30.9616  -12.5514   26.0266  C.2   1 <0>        -0.0158
7    C7      -30.7261  -14.7434   25.6985  C.ar  1 <0>         0.0470
8    C8      -31.7540  -12.9922   24.9721  C.2   1 <0>         0.0343
9    C9      -27.9905  -15.3816   28.8390  C.2   1 <0>        -0.0585
10   C10     -26.9335  -16.2126   28.8093  C.2   1 <0>        -0.0837
11   C11     -31.8244   -8.8416   25.9588  C.2   1 <0>         0.3223
12   C12     -30.8881  -11.1377   26.4581  C.3   1 <0>         0.0005
13   C13     -32.6143  -12.0991   24.1854  C.3   1 <0>         0.0374
14   C14     -32.0830  -10.2981   25.8910  C.3   1 <0>         0.1101
15   C15     -25.8005  -15.3318   30.9278  C.3   1 <0>        -0.0618
16   C16     -26.0792  -16.5064   29.9608  C.3   1 <0>        -0.0373
17   N1      -31.6033  -14.3144   24.7783  N.2   1 <0>        -0.3567
18   N2      -32.3765  -10.6685   24.4789  N.4   1 <0>        -0.2984
19   O1      -31.2342   -8.2996   27.0500  O.co2 1 <0>        -0.4795
20   O2      -32.4566   -7.9966   25.1093  O.co2 1 <0>        -0.2492
21   H1      -29.0010  -17.2073   27.1262  H     1 <0>         0.0624
22   H2      -30.6131  -16.8158   25.3633  H     1 <0>         0.0638
23   H3      -29.0659  -13.0836   28.0823  H     1 <0>         0.0630
24   H4      -28.1336  -14.8389   29.6587  H     1 <0>         0.0620
25   H5      -26.7265  -16.6874   27.9617  H     1 <0>         0.0572
26   H6      -30.8959  -11.0818   27.5507  H     1 <0>         0.0334
27   H7      -29.9335  -10.7353   26.1061  H     1 <0>         0.0334
28   H8      -32.3960  -12.2522   23.1302  H     1 <0>         0.0488
29   H9      -33.6595  -12.3505   24.3757  H     1 <0>         0.0488
30   H10     -32.9711  -10.5102   26.4920  H     1 <0>         0.0579
31   H11     -26.7058  -15.0589   31.4759  H     1 <0>         0.0233
32   H12     -25.4250  -14.4562   30.3895  H     1 <0>         0.0233
33   H13     -25.0523  -15.6383   31.6688  H     1 <0>         0.0233
34   H14     -25.1091  -16.8650   29.5952  H     1 <0>         0.0305
35   H15     -26.5377  -17.3197   30.5369  H     1 <0>         0.0305
36   H16     -31.5785  -10.3670   23.9207  H     1 <0>         0.1231
37   H17     -33.2041  -10.1548   24.1684  H     1 <0>         0.0000
@<TRIPOS>BOND
     1    1    2 ar
     2    1    5 ar
     3    2    7 ar
     4    3    4 ar
     5    3    5 ar
     6    4    6 1
     7    4    7 ar
     8    5    9 1
     9    6    8 2
    10    6   12 1
    11    7   17 1
    12    8   13 1
    13    8   17 1
    14    9   10 2
    15   10   16 1
    16   11   14 1
    17   11   19 1
    18   11   20 2
    19   12   14 1
    20   13   18 1
    21   14   18 1
    22   15   16 1
    23    1   21 1
    24    2   22 1
    25    3   23 1
    26    9   24 1
    27   10   25 1
    28   12   26 1
    29   12   27 1
    30   13   28 1
    31   13   29 1
    32   14   30 1
    33   15   31 1
    34   15   32 1
    35   15   33 1
    36   16   34 1
    37   16   35 1
    38   18   36 1
    39   18   37 1
@<TRIPOS>PROPERTY_DATA
  Total_Score	| 8.7273
  Crash		| -2.4560
  Polar		| 4.4483

@<TRIPOS>MOLECULE
ligand_uncharged17_000
   34    36     0     0     0
SMALL
USER_CHARGES

@<TRIPOS>ATOM
1    C1      -28.7047  -15.1393   26.8404  C.ar  1 <0>        -0.0343
2    C2      -27.4273  -14.9681   27.4007  C.ar  1 <0>        -0.0180
3    C3      -27.7435  -12.5405   27.4616  C.ar  1 <0>        -0.0105
4    C4      -29.0230  -12.7209   26.9025  C.ar  1 <0>         0.0066
5    C5      -30.0437  -11.8405   26.5506  C.2   1 <0>        -0.0157
6    C6      -29.4931  -14.0038   26.6128  C.ar  1 <0>         0.0472
7    C7      -26.9489  -13.6798   27.7336  C.ar  1 <0>         0.1212
8    C8      -31.0847  -12.6305   26.0683  C.2   1 <0>         0.0343
9    C9      -31.4882   -8.3857   25.9625  C.2   1 <0>         0.3223
10   C10     -30.0948  -10.3701   26.6178  C.3   1 <0>         0.0005
11   C11     -32.3712  -12.0704   25.6252  C.3   1 <0>         0.0374
12   C12     -31.5364   -9.8025   26.3989  C.3   1 <0>         0.1101
13   C13     -25.7359  -15.2136   30.1450  C.3   1 <0>        -0.0307
14   C14     -25.6337  -13.7214   29.7198  C.3   1 <0>         0.0868
15   N1      -30.7285  -13.9285   26.1004  N.2   1 <0>        -0.3567
16   N2      -32.2848  -10.6125   25.3848  N.4   1 <0>        -0.2984
17   O1      -32.3232   -7.9231   25.0072  O.co2 1 <0>        -0.4795
18   O2      -30.6592   -7.4959   26.5594  O.co2 1 <0>        -0.2492
19   O3      -25.7055  -13.5272   28.2847  O.3   1 <0>        -0.4922
20   H1      -29.0616  -16.0689   26.6166  H     1 <0>         0.0639
21   H2      -26.8481  -15.7883   27.5784  H     1 <0>         0.0655
22   H3      -27.4126  -11.6053   27.6895  H     1 <0>         0.0661
23   H4      -29.7249  -10.0521   27.5939  H     1 <0>         0.0334
24   H5      -29.4033   -9.9938   25.8646  H     1 <0>         0.0334
25   H6      -32.6529  -12.5506   24.6882  H     1 <0>         0.0488
26   H7      -33.1362  -12.2852   26.3719  H     1 <0>         0.0488
27   H8      -32.0761   -9.8465   27.3550  H     1 <0>         0.0579
28   H9      -26.7511  -15.5844   29.9876  H     1 <0>         0.0262
29   H10     -25.0176  -15.8036   29.5571  H     1 <0>         0.0262
30   H11     -25.5074  -15.3125   31.2076  H     1 <0>         0.0262
31   H12     -24.6529  -13.3621   30.0392  H     1 <0>         0.0694
32   H13     -26.4007  -13.1307   30.2527  H     1 <0>         0.0694
33   H14     -31.8283  -10.4703   24.4798  H     1 <0>         0.1231
34   H15     -33.2428  -10.2517   25.3254  H     1 <0>         0.0000
@<TRIPOS>BOND
     1    1    2 ar
     2    1    6 ar
     3    2    7 ar
     4    3    4 ar
     5    3    7 ar
     6    4    5 1
     7    4    6 ar
     8    5    8 2
     9    5   10 1
    10    6   15 1
    11    7   19 1
    12    8   11 1
    13    8   15 1
    14    9   12 1
    15    9   17 1
    16    9   18 2
    17   10   12 1
    18   11   16 1
    19   12   16 1
    20   13   14 1
    21   14   19 1
    22    1   20 1
    23    2   21 1
    24    3   22 1
    25   10   23 1
    26   10   24 1
    27   11   25 1
    28   11   26 1
    29   12   27 1
    30   13   28 1
    31   13   29 1
    32   13   30 1
    33   14   31 1
    34   14   32 1
    35   16   33 1
    36   16   34 1
@<TRIPOS>PROPERTY_DATA
  Total_Score	| 8.8387
  Crash		| -0.8873
  Polar		| 6.3614

@<TRIPOS>MOLECULE
ligand_uncharged17_001
   34    36     0     0     0
SMALL
USER_CHARGES

@<TRIPOS>ATOM
1    C1      -28.6764  -15.1064   26.8745  C.ar  1 <0>        -0.0343
2    C2      -27.3613  -14.9296   27.3540  C.ar  1 <0>        -0.0180
3    C3      -27.6472  -12.4957   27.3199  C.ar  1 <0>        -0.0105
4    C4      -28.9602  -12.6778   26.8509  C.ar  1 <0>         0.0066
5    C5      -29.9906  -11.7978   26.5292  C.2   1 <0>        -0.0157
6    C6      -29.4607  -13.9654   26.6417  C.ar  1 <0>         0.0472
7    C7      -26.8494  -13.6315   27.5878  C.ar  1 <0>         0.1212
8    C8      -31.0678  -12.5999   26.1354  C.2   1 <0>         0.0343
9    C9      -31.5129   -8.3611   25.9896  C.2   1 <0>         0.3223
10   C10     -30.0290  -10.3216   26.5133  C.3   1 <0>         0.0005
11   C11     -32.3734  -12.0493   25.7342  C.3   1 <0>         0.0374
12   C12     -31.4954   -9.7840   26.3965  C.3   1 <0>         0.1101
13   C13     -25.5919  -14.9185   30.0547  C.3   1 <0>        -0.0307
14   C14     -25.3882  -13.5062   29.4575  C.3   1 <0>         0.0868
15   N1      -30.7252  -13.8992   26.2000  N.2   1 <0>        -0.3567
16   N2      -32.2814  -10.5990   25.4334  N.4   1 <0>        -0.2984
17   O1      -32.3007   -7.9243   24.9757  O.co2 1 <0>        -0.4795
18   O2      -30.7729   -7.4499   26.6629  O.co2 1 <0>        -0.2492
19   O3      -25.5631  -13.4715   28.0265  O.3   1 <0>        -0.4922
20   H1      -29.0520  -16.0387   26.6967  H     1 <0>         0.0639
21   H2      -26.7771  -15.7501   27.5126  H     1 <0>         0.0655
22   H3      -27.2788  -11.5516   27.4752  H     1 <0>         0.0661
23   H4      -29.5704   -9.9421   27.4280  H     1 <0>         0.0334
24   H5      -29.4319   -9.9884   25.6608  H     1 <0>         0.0334
25   H6      -32.7203  -12.5615   24.8379  H     1 <0>         0.0488
26   H7      -33.0926  -12.2191   26.5343  H     1 <0>         0.0488
27   H8      -31.9751   -9.8450   27.3809  H     1 <0>         0.0579
28   H9      -26.6468  -15.1955   30.0223  H     1 <0>         0.0262
29   H10     -25.0142  -15.6514   29.4862  H     1 <0>         0.0262
30   H11     -25.2565  -14.9453   31.0965  H     1 <0>         0.0262
31   H12     -24.3643  -13.1984   29.6573  H     1 <0>         0.0694
32   H13     -26.0507  -12.7914   29.9573  H     1 <0>         0.0694
33   H14     -31.8252  -10.5082   24.5249  H     1 <0>         0.1231
34   H15     -33.2302  -10.2302   25.3683  H     1 <0>         0.0000
@<TRIPOS>BOND
     1    1    2 ar
     2    1    6 ar
     3    2    7 ar
     4    3    4 ar
     5    3    7 ar
     6    4    5 1
     7    4    6 ar
     8    5    8 2
     9    5   10 1
    10    6   15 1
    11    7   19 1
    12    8   11 1
    13    8   15 1
    14    9   12 1
    15    9   17 1
    16    9   18 2
    17   10   12 1
    18   11   16 1
    19   12   16 1
    20   13   14 1
    21   14   19 1
    22    1   20 1
    23    2   21 1
    24    3   22 1
    25   10   23 1
    26   10   24 1
    27   11   25 1
    28   11   26 1
    29   12   27 1
    30   13   28 1
    31   13   29 1
    32   13   30 1
    33   14   31 1
    34   14   32 1
    35   16   33 1
    36   16   34 1
@<TRIPOS>PROPERTY_DATA
  Total_Score	| 8.6913
  Crash		| -1.0100
  Polar		| 6.3954

@<TRIPOS>MOLECULE
ligand_uncharged17_002
   34    36     0     0     0
SMALL
USER_CHARGES

@<TRIPOS>ATOM
1    C1      -29.2184  -15.7541   26.6367  C.ar  1 <0>        -0.0343
2    C2      -28.2479  -15.7373   27.6512  C.ar  1 <0>        -0.0180
3    C3      -28.7476  -13.3902   28.1363  C.ar  1 <0>        -0.0105
4    C4      -29.7051  -13.4059   27.0946  C.ar  1 <0>         0.0066
5    C5      -30.5381  -12.4359   26.5419  C.2   1 <0>        -0.0157
6    C6      -29.9263  -14.5768   26.3655  C.ar  1 <0>         0.0472
7    C7      -28.0242  -14.5739   28.4360  C.ar  1 <0>         0.1212
8    C8      -31.2299  -13.0734   25.5089  C.2   1 <0>         0.0343
9    C9      -31.6983   -8.8499   25.8857  C.2   1 <0>         0.3223
10   C10     -30.6858  -10.9874   26.8376  C.3   1 <0>         0.0005
11   C11     -32.2131  -12.3879   24.6530  C.3   1 <0>         0.0374
12   C12     -31.8626  -10.3152   26.0420  C.3   1 <0>         0.1101
13   C13     -25.4380  -15.9052   30.5796  C.3   1 <0>        -0.0307
14   C14     -26.9225  -15.5345   30.3935  C.3   1 <0>         0.0868
15   N1      -30.8412  -14.3544   25.4011  N.2   1 <0>        -0.3567
16   N2      -32.0117  -10.9223   24.6916  N.4   1 <0>        -0.2984
17   O1      -32.5021   -8.1606   25.0401  O.co2 1 <0>        -0.4795
18   O2      -31.0430   -8.1326   26.8234  O.co2 1 <0>        -0.2492
19   O3      -27.0085  -14.5274   29.3606  O.3   1 <0>        -0.4922
20   H1      -29.3832  -16.5972   26.0785  H     1 <0>         0.0639
21   H2      -27.6808  -16.5713   27.8074  H     1 <0>         0.0655
22   H3      -28.5644  -12.5280   28.6495  H     1 <0>         0.0661
23   H4      -30.8581  -10.8519   27.9076  H     1 <0>         0.0334
24   H5      -29.7352  -10.5095   26.5825  H     1 <0>         0.0334
25   H6      -32.0983  -12.7248   23.6222  H     1 <0>         0.0488
26   H7      -33.2172  -12.6360   24.9961  H     1 <0>         0.0488
27   H8      -32.7969  -10.4845   26.5871  H     1 <0>         0.0579
28   H9      -25.0072  -16.2058   29.6215  H     1 <0>         0.0262
29   H10     -24.8775  -15.0531   30.9676  H     1 <0>         0.0262
30   H11     -25.3390  -16.7345   31.2766  H     1 <0>         0.0262
31   H12     -27.3121  -15.1223   31.3251  H     1 <0>         0.0694
32   H13     -27.4742  -16.4480   30.1552  H     1 <0>         0.0694
33   H14     -31.1645  -10.7141   24.1660  H     1 <0>         0.1231
34   H15     -32.8028  -10.4964   24.2070  H     1 <0>         0.0000
@<TRIPOS>BOND
     1    1    2 ar
     2    1    6 ar
     3    2    7 ar
     4    3    4 ar
     5    3    7 ar
     6    4    5 1
     7    4    6 ar
     8    5    8 2
     9    5   10 1
    10    6   15 1
    11    7   19 1
    12    8   11 1
    13    8   15 1
    14    9   12 1
    15    9   17 1
    16    9   18 2
    17   10   12 1
    18   11   16 1
    19   12   16 1
    20   13   14 1
    21   14   19 1
    22    1   20 1
    23    2   21 1
    24    3   22 1
    25   10   23 1
    26   10   24 1
    27   11   25 1
    28   11   26 1
    29   12   27 1
    30   13   28 1
    31   13   29 1
    32   13   30 1
    33   14   31 1
    34   14   32 1
    35   16   33 1
    36   16   34 1
@<TRIPOS>PROPERTY_DATA
  Total_Score	| 8.3405
  Crash		| -0.8552
  Polar		| 4.7686

@<TRIPOS>MOLECULE
ligand_uncharged24_000
   30    32     0     0     0
SMALL
USER_CHARGES

@<TRIPOS>ATOM
1    C1      -28.5890  -15.9821   27.2140  C.ar  1 <0>        -0.0178
2    C2      -29.5547  -15.9053   26.1904  C.ar  1 <0>        -0.0343
3    C3      -28.8625  -13.5959   27.6931  C.ar  1 <0>        -0.0103
4    C4      -29.8105  -13.5279   26.6567  C.ar  1 <0>         0.0067
5    C5      -28.2483  -14.8368   27.9766  C.ar  1 <0>         0.1276
6    C6      -30.5504  -12.5239   26.1157  C.2   1 <0>        -0.0157
7    C7      -30.1507  -14.6634   25.9227  C.ar  1 <0>         0.0472
8    C8      -31.3077  -13.0819   25.1503  C.cat 1 <0>         0.0343
9    C9      -31.6824   -8.8964   25.8755  C.2   1 <0>         0.3223
10   C10     -30.5685  -11.1151   26.4660  C.3   1 <0>         0.0005
11   C11     -32.2693  -12.3380   24.3622  C.3   1 <0>         0.0374
12   C12     -31.2968  -10.2423   25.3901  C.3   1 <0>         0.1101
13   C13     -27.6879  -15.6773   30.1260  C.3   1 <0>         0.3893
14   N1      -31.0351  -14.3378   25.0149  N.2   1 <0>        -0.3567
15   N2      -32.4965  -10.9606   24.8751  N.3   1 <0>        -0.2984
16   O1      -31.2081   -8.4000   27.0417  O.co2 1 <0>        -0.4795
17   O2      -32.3168   -8.0377   25.0448  O.co2 1 <0>        -0.2492
18   O3      -27.3161  -14.8843   28.9814  O.3   1 <0>        -0.4342
19   F1      -27.2155  -16.9592   29.9911  F     1 <0>        -0.1663
20   F2      -27.0937  -15.1185   31.2294  F     1 <0>        -0.1663
21   H1      -28.1360  -16.8728   27.4120  H     1 <0>         0.0655
22   H2      -29.8123  -16.7383   25.6598  H     1 <0>         0.0639
23   H3      -28.6249  -12.7592   28.2359  H     1 <0>         0.0661
24   H4      -31.0707  -11.0257   27.4310  H     1 <0>         0.0334
25   H5      -29.5419  -10.7550   26.5743  H     1 <0>         0.0334
26   H6      -31.9180  -12.2897   23.3300  H     1 <0>         0.0488
27   H7      -33.2286  -12.8594   24.3707  H     1 <0>         0.0488
28   H8      -30.6115  -10.0898   24.5533  H     1 <0>         0.0579
29   H9      -28.7713  -15.7122   30.2964  H     1 <0>         0.1520
30   H10     -32.9652  -10.4140   24.1472  H     1 <0>         0.1231
@<TRIPOS>BOND
     1    1    2 ar
     2    1    5 ar
     3    2    7 ar
     4    3    4 ar
     5    3    5 ar
     6    4    6 2
     7    4    7 ar
     8    5   18 1
     9    6    8 1
    10    6   10 1
    11    7   14 2
    12    8   11 1
    13    8   14 1
    14    9   12 1
    15    9   16 1
    16    9   17 2
    17   10   12 1
    18   11   15 1
    19   12   15 1
    20   13   18 1
    21   13   19 1
    22   13   20 1
    23    1   21 1
    24    2   22 1
    25    3   23 1
    26   10   24 1
    27   10   25 1
    28   11   26 1
    29   11   27 1
    30   12   28 1
    31   13   29 1
    32   15   30 1
@<TRIPOS>PROPERTY_DATA
  Total_Score	| 7.0270
  Crash		| -1.4789
  Polar		| 4.8041

@<TRIPOS>MOLECULE
ligand_uncharged24_001
   30    32     0     0     0
SMALL
USER_CHARGES

@<TRIPOS>ATOM
1    C1      -28.8252  -15.8689   27.9371  C.ar  1 <0>        -0.0178
2    C2      -29.5944  -15.8376   26.7552  C.ar  1 <0>        -0.0343
3    C3      -29.0340  -13.4474   28.1691  C.ar  1 <0>        -0.0103
4    C4      -29.8272  -13.4196   27.0085  C.ar  1 <0>         0.0067
5    C5      -28.5267  -14.6819   28.6513  C.ar  1 <0>         0.1276
6    C6      -30.4680  -12.4373   26.3266  C.2   1 <0>        -0.0157
7    C7      -30.0991  -14.5982   26.3161  C.ar  1 <0>         0.0472
8    C8      -31.1294  -13.0570   25.3269  C.cat 1 <0>         0.0343
9    C9      -31.6090   -8.8532   25.8023  C.2   1 <0>         0.3223
10   C10     -30.5328  -11.0201   26.6108  C.3   1 <0>         0.0005
11   C11     -32.0796  -12.3773   24.4720  C.3   1 <0>         0.0374
12   C12     -31.1886  -10.2172   25.4272  C.3   1 <0>         0.1101
13   C13     -26.7929  -15.5769   30.0673  C.3   1 <0>         0.3893
14   N1      -30.8688  -14.3158   25.2976  N.2   1 <0>        -0.3567
15   N2      -32.3331  -10.9727   24.8721  N.3   1 <0>        -0.2984
16   O1      -31.0348   -8.1892   26.8418  O.co2 1 <0>        -0.4795
17   O2      -32.3581   -8.1190   24.9364  O.co2 1 <0>        -0.2492
18   O3      -27.8664  -14.6468   29.8488  O.3   1 <0>        -0.4342
19   F1      -26.2040  -15.2825   31.2758  F     1 <0>        -0.1663
20   F2      -27.2647  -16.8661   30.1453  F     1 <0>        -0.1663
21   H1      -28.4897  -16.7641   28.2897  H     1 <0>         0.0655
22   H2      -29.8123  -16.7084   26.2447  H     1 <0>         0.0639
23   H3      -28.8383  -12.5792   28.6735  H     1 <0>         0.0661
24   H4      -31.1094  -10.8785   27.5317  H     1 <0>         0.0334
25   H5      -29.5180  -10.6393   26.7793  H     1 <0>         0.0334
26   H6      -31.7300  -12.3959   23.4319  H     1 <0>         0.0488
27   H7      -33.0379  -12.9080   24.5031  H     1 <0>         0.0488
28   H8      -30.4377  -10.1081   24.6485  H     1 <0>         0.0579
29   H9      -26.0363  -15.5097   29.2843  H     1 <0>         0.1520
30   H10     -32.7399  -10.4687   24.0847  H     1 <0>         0.1231
@<TRIPOS>BOND
     1    1    2 ar
     2    1    5 ar
     3    2    7 ar
     4    3    4 ar
     5    3    5 ar
     6    4    6 2
     7    4    7 ar
     8    5   18 1
     9    6    8 1
    10    6   10 1
    11    7   14 2
    12    8   11 1
    13    8   14 1
    14    9   12 1
    15    9   16 1
    16    9   17 2
    17   10   12 1
    18   11   15 1
    19   12   15 1
    20   13   18 1
    21   13   19 1
    22   13   20 1
    23    1   21 1
    24    2   22 1
    25    3   23 1
    26   10   24 1
    27   10   25 1
    28   11   26 1
    29   11   27 1
    30   12   28 1
    31   13   29 1
    32   15   30 1
@<TRIPOS>PROPERTY_DATA
  Total_Score	| 6.7720
  Crash		| -1.3936
  Polar		| 4.2467

@<TRIPOS>MOLECULE
ligand_uncharged24_002
   30    32     0     0     0
SMALL
USER_CHARGES

@<TRIPOS>ATOM
1    C1      -28.8225  -15.9275   27.5549  C.ar  1 <0>        -0.0178
2    C2      -29.6989  -15.8678   26.4536  C.ar  1 <0>        -0.0343
3    C3      -29.0388  -13.5226   27.9025  C.ar  1 <0>        -0.0103
4    C4      -29.9289  -13.4680   26.8148  C.ar  1 <0>         0.0067
5    C5      -28.4762  -14.7624   28.2863  C.ar  1 <0>         0.1276
6    C6      -30.6243  -12.4645   26.2149  C.2   1 <0>        -0.0157
7    C7      -30.2483  -14.6216   26.0980  C.ar  1 <0>         0.0472
8    C8      -31.3355  -13.0423   25.2258  C.cat 1 <0>         0.0343
9    C9      -31.7081   -8.8293   25.7868  C.2   1 <0>         0.3223
10   C10     -30.6617  -11.0454   26.5343  C.3   1 <0>         0.0005
11   C11     -32.2647  -12.3130   24.3849  C.3   1 <0>         0.0374
12   C12     -31.3179  -10.2001   25.3931  C.3   1 <0>         0.1101
13   C13     -26.9361  -15.8920   29.8221  C.3   1 <0>         0.3893
14   N1      -31.0734  -14.3041   25.1338  N.2   1 <0>        -0.3567
15   N2      -32.4997  -10.9236   24.8509  N.3   1 <0>        -0.2984
16   O1      -32.4123   -8.0637   24.9252  O.co2 1 <0>        -0.4795
17   O2      -31.1170   -8.2040   26.8351  O.co2 1 <0>        -0.2492
18   O3      -27.6671  -14.7284   29.3973  O.3   1 <0>        -0.4342
19   F1      -26.3682  -15.6188   31.0421  F     1 <0>        -0.1663
20   F2      -27.7746  -16.9655   29.9913  F     1 <0>        -0.1663
21   H1      -28.4407  -16.8343   27.8270  H     1 <0>         0.0655
22   H2      -29.9495  -16.7128   25.9301  H     1 <0>         0.0639
23   H3      -28.8155  -12.6716   28.4172  H     1 <0>         0.0661
24   H4      -31.2236  -10.9197   27.4639  H     1 <0>         0.0334
25   H5      -29.6402  -10.6865   26.6984  H     1 <0>         0.0334
26   H6      -31.8778  -12.2943   23.3654  H     1 <0>         0.0488
27   H7      -33.2285  -12.8268   24.3757  H     1 <0>         0.0488
28   H8      -30.5862  -10.0969   24.5862  H     1 <0>         0.0579
29   H9      -26.1373  -16.1563   29.1238  H     1 <0>         0.1520
30   H10     -32.9258  -10.3933   24.0883  H     1 <0>         0.1231
@<TRIPOS>BOND
     1    1    2 ar
     2    1    5 ar
     3    2    7 ar
     4    3    4 ar
     5    3    5 ar
     6    4    6 2
     7    4    7 ar
     8    5   18 1
     9    6    8 1
    10    6   10 1
    11    7   14 2
    12    8   11 1
    13    8   14 1
    14    9   12 1
    15    9   16 1
    16    9   17 2
    17   10   12 1
    18   11   15 1
    19   12   15 1
    20   13   18 1
    21   13   19 1
    22   13   20 1
    23    1   21 1
    24    2   22 1
    25    3   23 1
    26   10   24 1
    27   10   25 1
    28   11   26 1
    29   11   27 1
    30   12   28 1
    31   13   29 1
    32   15   30 1
@<TRIPOS>PROPERTY_DATA
  Total_Score	| 6.6133
  Crash		| -1.3488
  Polar		| 4.0573

@<TRIPOS>MOLECULE
ligand_uncharged27_000
   28    30     0     0     0
SMALL
USER_CHARGES

@<TRIPOS>ATOM
1    C1      -25.2952  -12.9431   28.0769  C.1   1 <0>         0.0992
2    C2      -26.9695  -14.5724   27.7409  C.ar  1 <0>        -0.0424
3    C3      -28.2945  -14.8836   27.3661  C.ar  1 <0>        -0.0366
4    C4      -27.4237  -12.1768   27.4518  C.ar  1 <0>        -0.0349
5    C5      -26.5279  -13.2254   27.7729  C.ar  1 <0>         0.0525
6    C6      -28.7383  -12.5058   27.0813  C.ar  1 <0>         0.0044
7    C7      -29.8204  -11.7292   26.6917  C.2   1 <0>        -0.0158
8    C8      -29.1664  -13.8346   27.0290  C.ar  1 <0>         0.0470
9    C9      -30.8636  -12.6164   26.4241  C.2   1 <0>         0.0343
10   C10     -31.5136   -8.4309   25.7733  C.2   1 <0>         0.3223
11   C11     -29.9453  -10.2620   26.5787  C.3   1 <0>         0.0005
12   C12     -32.1894  -12.1629   25.9555  C.3   1 <0>         0.0374
13   C13     -31.1933   -9.8707   25.7256  C.3   1 <0>         0.1101
14   N1      -24.2080  -12.6748   28.3326  N.1   1 <0>        -0.1909
15   N2      -30.4458  -13.8833   26.6192  N.2   1 <0>        -0.3567
16   N3      -32.3707  -10.6927   26.1293  N.4   1 <0>        -0.2984
17   O1      -32.4600   -7.9431   24.9403  O.co2 1 <0>        -0.4795
18   O2      -30.8172   -7.5562   26.5368  O.co2 1 <0>        -0.2492
19   H1      -26.3327  -15.3401   27.9758  H     1 <0>         0.0631
20   H2      -28.6136  -15.8549   27.3279  H     1 <0>         0.0639
21   H3      -27.1299  -11.1949   27.4650  H     1 <0>         0.0637
22   H4      -30.0228   -9.8584   27.5904  H     1 <0>         0.0334
23   H5      -29.0483   -9.8557   26.1066  H     1 <0>         0.0334
24   H6      -32.3006  -12.4235   24.8993  H     1 <0>         0.0488
25   H7      -32.9684  -12.6757   26.5193  H     1 <0>         0.0488
26   H8      -30.9666  -10.0987   24.6800  H     1 <0>         0.0579
27   H9      -33.1952  -10.4015   25.5995  H     1 <0>         0.1231
28   H10     -32.5486  -10.5095   27.1197  H     1 <0>         0.0000
@<TRIPOS>BOND
     1    1    5 1
     2    1   14 3
     3    2    3 ar
     4    2    5 ar
     5    3    8 ar
     6    4    5 ar
     7    4    6 ar
     8    6    7 1
     9    6    8 ar
    10    7    9 2
    11    7   11 1
    12    8   15 1
    13    9   12 1
    14    9   15 1
    15   10   13 1
    16   10   17 1
    17   10   18 2
    18   11   13 1
    19   12   16 1
    20   13   16 1
    21    2   19 1
    22    3   20 1
    23    4   21 1
    24   11   22 1
    25   11   23 1
    26   12   24 1
    27   12   25 1
    28   13   26 1
    29   16   27 1
    30   16   28 1
@<TRIPOS>PROPERTY_DATA
  Total_Score	| 6.8333
  Crash		| -1.0018
  Polar		| 5.4723

@<TRIPOS>MOLECULE
ligand_uncharged27_001
   28    30     0     0     0
SMALL
USER_CHARGES

@<TRIPOS>ATOM
1    C1      -25.3137  -12.9368   28.0662  C.1   1 <0>         0.0992
2    C2      -26.9829  -14.5737   27.7372  C.ar  1 <0>        -0.0424
3    C3      -28.3087  -14.8909   27.3715  C.ar  1 <0>        -0.0366
4    C4      -27.4371  -12.1860   27.4044  C.ar  1 <0>        -0.0349
5    C5      -26.5429  -13.2261   27.7520  C.ar  1 <0>         0.0525
6    C6      -28.7515  -12.5219   27.0335  C.ar  1 <0>         0.0044
7    C7      -29.8314  -11.7546   26.6216  C.2   1 <0>        -0.0158
8    C8      -29.1809  -13.8493   27.0139  C.ar  1 <0>         0.0470
9    C9      -30.8777  -12.6433   26.3793  C.2   1 <0>         0.0343
10   C10     -31.5400   -8.4613   25.7134  C.2   1 <0>         0.3223
11   C11     -29.9512  -10.2921   26.4832  C.3   1 <0>         0.0005
12   C12     -32.2059  -12.1969   25.9101  C.3   1 <0>         0.0374
13   C13     -31.2057   -9.8994   25.6401  C.3   1 <0>         0.1101
14   N1      -24.2320  -12.6586   28.3348  N.1   1 <0>        -0.1909
15   N2      -30.4632  -13.9046   26.6100  N.2   1 <0>        -0.3567
16   N3      -32.3861  -10.7220   26.0259  N.4   1 <0>        -0.2984
17   O1      -30.9166   -7.6120   26.5630  O.co2 1 <0>        -0.4795
18   O2      -32.5127   -7.9680   24.9157  O.co2 1 <0>        -0.2492
19   H1      -26.3435  -15.3351   27.9813  H     1 <0>         0.0631
20   H2      -28.6258  -15.8626   27.3515  H     1 <0>         0.0639
21   H3      -27.1447  -11.2041   27.4022  H     1 <0>         0.0637
22   H4      -30.0133   -9.8778   27.4916  H     1 <0>         0.0334
23   H5      -29.0556   -9.8975   25.9976  H     1 <0>         0.0334
24   H6      -32.3335  -12.5041   24.8700  H     1 <0>         0.0488
25   H7      -32.9806  -12.6800   26.5082  H     1 <0>         0.0488
26   H8      -30.9783  -10.1079   24.5921  H     1 <0>         0.0579
27   H9      -33.1909  -10.4551   25.4516  H     1 <0>         0.1231
28   H10     -32.6086  -10.5057   26.9994  H     1 <0>         0.0000
@<TRIPOS>BOND
     1    1    5 1
     2    1   14 3
     3    2    3 ar
     4    2    5 ar
     5    3    8 ar
     6    4    5 ar
     7    4    6 ar
     8    6    7 1
     9    6    8 ar
    10    7    9 2
    11    7   11 1
    12    8   15 1
    13    9   12 1
    14    9   15 1
    15   10   13 1
    16   10   17 1
    17   10   18 2
    18   11   13 1
    19   12   16 1
    20   13   16 1
    21    2   19 1
    22    3   20 1
    23    4   21 1
    24   11   22 1
    25   11   23 1
    26   12   24 1
    27   12   25 1
    28   13   26 1
    29   16   27 1
    30   16   28 1
@<TRIPOS>PROPERTY_DATA
  Total_Score	| 6.6420
  Crash		| -1.0805
  Polar		| 5.4311

@<TRIPOS>MOLECULE
ligand_uncharged27_002
   28    30     0     0     0
SMALL
USER_CHARGES

@<TRIPOS>ATOM
1    C1      -27.5098  -14.6949   29.5592  C.1   1 <0>         0.0992
2    C2      -28.5921  -15.8901   27.8375  C.ar  1 <0>        -0.0424
3    C3      -29.4600  -15.8932   26.7247  C.ar  1 <0>        -0.0366
4    C4      -28.9164  -13.4765   28.1208  C.ar  1 <0>        -0.0349
5    C5      -28.3165  -14.6879   28.5366  C.ar  1 <0>         0.0525
6    C6      -29.7850  -13.4974   27.0154  C.ar  1 <0>         0.0044
7    C7      -30.5072  -12.4956   26.3813  C.2   1 <0>        -0.0158
8    C8      -30.0502  -14.6817   26.3235  C.ar  1 <0>         0.0470
9    C9      -31.2060  -13.1209   25.3489  C.2   1 <0>         0.0343
10   C10     -31.6667   -8.8843   25.8577  C.2   1 <0>         0.3223
11   C11     -30.5801  -11.0471   26.6718  C.3   1 <0>         0.0005
12   C12     -32.1257  -12.3871   24.4593  C.3   1 <0>         0.0374
13   C13     -31.2445  -10.2573   25.4966  C.3   1 <0>         0.1101
14   N1      -26.7977  -14.7006   30.4596  N.1   1 <0>        -0.1909
15   N2      -30.8940  -14.4327   25.3046  N.2   1 <0>        -0.3567
16   N3      -32.4074  -11.0080   24.9410  N.4   1 <0>        -0.2984
17   O1      -31.1214   -8.2406   26.9157  O.co2 1 <0>        -0.4795
18   O2      -32.3564   -8.1381   24.9634  O.co2 1 <0>        -0.2492
19   H1      -28.1621  -16.7715   28.1302  H     1 <0>         0.0631
20   H2      -29.6588  -16.7614   26.2222  H     1 <0>         0.0639
21   H3      -28.7342  -12.5934   28.6072  H     1 <0>         0.0637
22   H4      -31.1469  -10.9121   27.5951  H     1 <0>         0.0334
23   H5      -29.5682  -10.6644   26.8309  H     1 <0>         0.0334
24   H6      -31.7019  -12.3484   23.4559  H     1 <0>         0.0488
25   H7      -33.0746  -12.9224   24.4059  H     1 <0>         0.0488
26   H8      -30.5003  -10.1518   24.7031  H     1 <0>         0.0579
27   H9      -32.7935  -10.4850   24.1504  H     1 <0>         0.1231
28   H10     -33.1221  -11.0656   25.6703  H     1 <0>         0.0000
@<TRIPOS>BOND
     1    1    5 1
     2    1   14 3
     3    2    3 ar
     4    2    5 ar
     5    3    8 ar
     6    4    5 ar
     7    4    6 ar
     8    6    7 1
     9    6    8 ar
    10    7    9 2
    11    7   11 1
    12    8   15 1
    13    9   12 1
    14    9   15 1
    15   10   13 1
    16   10   17 1
    17   10   18 2
    18   11   13 1
    19   12   16 1
    20   13   16 1
    21    2   19 1
    22    3   20 1
    23    4   21 1
    24   11   22 1
    25   11   23 1
    26   12   24 1
    27   12   25 1
    28   13   26 1
    29   16   27 1
    30   16   28 1
@<TRIPOS>PROPERTY_DATA
  Total_Score	| 6.4942
  Crash		| -1.1341
  Polar		| 4.0195

@<TRIPOS>MOLECULE
ligand_uncharged37_000
   44    47     0     0     0
SMALL
USER_CHARGES

@<TRIPOS>ATOM
1    C1      -29.1508  -15.8875   27.7280  C.ar  1 <0>        -0.0493
2    C2      -29.9552  -15.8330   26.5723  C.ar  1 <0>        -0.0371
3    C3      -29.2186  -13.4565   27.9425  C.ar  1 <0>        -0.0418
4    C4      -30.0550  -13.4227   26.8206  C.ar  1 <0>         0.0039
5    C5      -28.7321  -14.7083   28.3994  C.ar  1 <0>         0.0184
6    C6      -30.6714  -12.4077   26.1581  C.2   1 <0>        -0.0158
7    C7      -30.3915  -14.5785   26.1230  C.ar  1 <0>         0.0470
8    C8      -31.3580  -12.9820   25.1501  C.cat 1 <0>         0.0343
9    C9      -27.8465  -14.7479   29.4723  C.2   1 <0>         0.1662
10   C10     -31.8001   -8.7984   25.8352  C.2   1 <0>         0.3223
11   C11     -30.7081  -10.9953   26.4954  C.3   1 <0>         0.0005
12   C12     -32.2954  -12.2495   24.3174  C.3   1 <0>         0.0374
13   C13     -24.3594  -17.4496   29.2374  C.3   1 <0>        -0.0530
14   C14     -24.8432  -16.9285   30.6173  C.3   1 <0>        -0.0524
15   C15     -24.5164  -16.3737   28.1322  C.3   1 <0>        -0.0524
16   C16     -26.2892  -16.3617   30.5536  C.3   1 <0>        -0.0432
17   C17     -25.9710  -15.8379   28.0646  C.3   1 <0>        -0.0432
18   C18     -26.4767  -15.2884   29.4373  C.3   1 <0>         0.0221
19   C19     -31.3791  -10.1371   25.3767  C.3   1 <0>         0.1101
20   N1      -31.1547  -14.2592   25.1098  N.2   1 <0>        -0.3567
21   N2      -32.5468  -10.8653   24.8014  N.3   1 <0>        -0.2984
22   O1      -31.2365   -8.2322   26.9260  O.co2 1 <0>        -0.4795
23   O2      -28.1523  -14.0880   30.4549  O.2   1 <0>        -0.2918
24   O3      -32.4258   -7.9685   24.9746  O.co2 1 <0>        -0.2492
25   H1      -28.8771  -16.8060   28.0815  H     1 <0>         0.0625
26   H2      -30.2136  -16.6894   26.0761  H     1 <0>         0.0638
27   H3      -28.9586  -12.5870   28.4078  H     1 <0>         0.0631
28   H4      -31.2600  -10.8879   27.4318  H     1 <0>         0.0334
29   H5      -29.6894  -10.6328   26.6549  H     1 <0>         0.0334
30   H6      -31.9163  -12.2178   23.2945  H     1 <0>         0.0488
31   H7      -33.2530  -12.7713   24.3073  H     1 <0>         0.0488
32   H8      -23.3075  -17.7496   29.3133  H     1 <0>         0.0265
33   H9      -24.9478  -18.3322   28.9686  H     1 <0>         0.0265
34   H10     -24.8098  -17.7493   31.3447  H     1 <0>         0.0265
35   H11     -24.1717  -16.1401   30.9786  H     1 <0>         0.0265
36   H12     -23.8445  -15.5400   28.3388  H     1 <0>         0.0265
37   H13     -24.2321  -16.8094   27.1667  H     1 <0>         0.0265
38   H14     -26.9903  -17.1929   30.3984  H     1 <0>         0.0272
39   H15     -26.5141  -15.9022   31.5220  H     1 <0>         0.0272
40   H16     -26.0211  -15.0500   27.3065  H     1 <0>         0.0272
41   H17     -26.5887  -16.6677   27.7248  H     1 <0>         0.0272
42   H18     -25.8098  -14.4524   29.6692  H     1 <0>         0.0381
43   H19     -30.6490   -9.9835   24.5763  H     1 <0>         0.0579
44   H20     -32.9719  -10.3229   24.0402  H     1 <0>         0.1231
@<TRIPOS>BOND
     1    1    2 ar
     2    1    5 ar
     3    2    7 ar
     4    3    4 ar
     5    3    5 ar
     6    4    6 2
     7    4    7 ar
     8    5    9 1
     9    6    8 1
    10    6   11 1
    11    7   20 2
    12    8   12 1
    13    8   20 1
    14    9   18 1
    15    9   23 2
    16   10   19 1
    17   10   22 1
    18   10   24 2
    19   11   19 1
    20   12   21 1
    21   13   14 1
    22   13   15 1
    23   14   16 1
    24   15   17 1
    25   16   18 1
    26   17   18 1
    27   19   21 1
    28    1   25 1
    29    2   26 1
    30    3   27 1
    31   11   28 1
    32   11   29 1
    33   12   30 1
    34   12   31 1
    35   13   32 1
    36   13   33 1
    37   14   34 1
    38   14   35 1
    39   15   36 1
    40   15   37 1
    41   16   38 1
    42   16   39 1
    43   17   40 1
    44   17   41 1
    45   18   42 1
    46   19   43 1
    47   21   44 1
@<TRIPOS>PROPERTY_DATA
  Total_Score	| 9.1817
  Crash		| -3.1872
  Polar		| 5.1679

@<TRIPOS>MOLECULE
ligand_uncharged37_001
   44    47     0     0     0
SMALL
USER_CHARGES

@<TRIPOS>ATOM
1    C1      -29.3939  -15.9414   27.6641  C.ar  1 <0>        -0.0493
2    C2      -30.1834  -15.8461   26.4951  C.ar  1 <0>        -0.0371
3    C3      -29.4618  -13.5131   27.9477  C.ar  1 <0>        -0.0418
4    C4      -30.2723  -13.4372   26.8031  C.ar  1 <0>         0.0039
5    C5      -29.0122  -14.7819   28.3887  C.ar  1 <0>         0.0184
6    C6      -30.8560  -12.3972   26.1542  C.2   1 <0>        -0.0158
7    C7      -30.6132  -14.5776   26.0832  C.ar  1 <0>         0.0470
8    C8      -31.5292  -12.9427   25.1213  C.cat 1 <0>         0.0343
9    C9      -28.1453  -14.8510   29.4777  C.2   1 <0>         0.1662
10   C10     -31.7815   -8.7354   25.7542  C.2   1 <0>         0.3223
11   C11     -30.8450  -10.9830   26.4954  C.3   1 <0>         0.0005
12   C12     -32.4054  -12.1816   24.2621  C.3   1 <0>         0.0374
13   C13     -24.2808  -16.1095   27.8579  C.3   1 <0>        -0.0530
14   C14     -24.8623  -16.8711   29.0767  C.3   1 <0>        -0.0524
15   C15     -24.5756  -14.5871   27.9363  C.3   1 <0>        -0.0524
16   C16     -26.3810  -16.6100   29.2143  C.3   1 <0>        -0.0432
17   C17     -26.0864  -14.3060   28.1141  C.3   1 <0>        -0.0432
18   C18     -26.7059  -15.0910   29.3182  C.3   1 <0>         0.0221
19   C19     -31.4178  -10.1092   25.3387  C.3   1 <0>         0.1101
20   N1      -31.3427  -14.2236   25.0580  N.2   1 <0>        -0.3567
21   N2      -32.5902  -10.7771   24.7158  N.3   1 <0>        -0.2984
22   O1      -31.0533   -8.1019   26.7053  O.co2 1 <0>        -0.4795
23   O2      -28.5431  -14.3631   30.5271  O.2   1 <0>        -0.2918
24   O3      -32.4090   -7.9462   24.8563  O.co2 1 <0>        -0.2492
25   H1      -29.1183  -16.8720   27.9820  H     1 <0>         0.0625
26   H2      -30.4500  -16.6869   25.9757  H     1 <0>         0.0638
27   H3      -29.1798  -12.6533   28.4286  H     1 <0>         0.0631
28   H4      -31.4330  -10.8415   27.4018  H     1 <0>         0.0334
29   H5      -29.8159  -10.6706   26.6969  H     1 <0>         0.0334
30   H6      -31.9930  -12.1886   23.2536  H     1 <0>         0.0488
31   H7      -33.3920  -12.6525   24.2347  H     1 <0>         0.0488
32   H8      -23.2031  -16.2722   27.8173  H     1 <0>         0.0265
33   H9      -24.7128  -16.5089   26.9367  H     1 <0>         0.0265
34   H10     -24.6824  -17.9422   28.9519  H     1 <0>         0.0265
35   H11     -24.3553  -16.5563   29.9903  H     1 <0>         0.0265
36   H12     -24.0253  -14.1426   28.7701  H     1 <0>         0.0265
37   H13     -24.2378  -14.1012   27.0152  H     1 <0>         0.0265
38   H14     -26.8642  -17.0348   28.3346  H     1 <0>         0.0272
39   H15     -26.7551  -17.1333   30.0987  H     1 <0>         0.0272
40   H16     -26.2292  -13.2293   28.2634  H     1 <0>         0.0272
41   H17     -26.5904  -14.5818   27.1806  H     1 <0>         0.0272
42   H18     -26.1998  -14.7235   30.2172  H     1 <0>         0.0381
43   H19     -30.6427  -10.0087   24.5729  H     1 <0>         0.0579
44   H20     -32.9359  -10.2312   23.9246  H     1 <0>         0.1231
@<TRIPOS>BOND
     1    1    2 ar
     2    1    5 ar
     3    2    7 ar
     4    3    4 ar
     5    3    5 ar
     6    4    6 2
     7    4    7 ar
     8    5    9 1
     9    6    8 1
    10    6   11 1
    11    7   20 2
    12    8   12 1
    13    8   20 1
    14    9   18 1
    15    9   23 2
    16   10   19 1
    17   10   22 1
    18   10   24 2
    19   11   19 1
    20   12   21 1
    21   13   14 1
    22   13   15 1
    23   14   16 1
    24   15   17 1
    25   16   18 1
    26   17   18 1
    27   19   21 1
    28    1   25 1
    29    2   26 1
    30    3   27 1
    31   11   28 1
    32   11   29 1
    33   12   30 1
    34   12   31 1
    35   13   32 1
    36   13   33 1
    37   14   34 1
    38   14   35 1
    39   15   36 1
    40   15   37 1
    41   16   38 1
    42   16   39 1
    43   17   40 1
    44   17   41 1
    45   18   42 1
    46   19   43 1
    47   21   44 1
@<TRIPOS>PROPERTY_DATA
  Total_Score	| 7.6655
  Crash		| -3.6820
  Polar		| 5.1545

@<TRIPOS>MOLECULE
ligand_uncharged37_002
   44    47     0     0     0
SMALL
USER_CHARGES

@<TRIPOS>ATOM
1    C1      -29.2825  -16.0639   27.0917  C.ar  1 <0>        -0.0493
2    C2      -30.2345  -15.8948   26.0602  C.ar  1 <0>        -0.0371
3    C3      -29.3316  -13.6780   27.5738  C.ar  1 <0>        -0.0418
4    C4      -30.2861  -13.5192   26.5586  C.ar  1 <0>         0.0039
5    C5      -28.7862  -14.9605   27.8456  C.ar  1 <0>         0.0184
6    C6      -30.9458  -12.4407   26.0495  C.2   1 <0>        -0.0158
7    C7      -30.7114  -14.6052   25.8001  C.ar  1 <0>         0.0470
8    C8      -31.7194  -12.9170   25.0580  C.cat 1 <0>         0.0343
9    C9      -27.7859  -15.1086   28.8285  C.2   1 <0>         0.1662
10   C10     -31.8094   -8.7430   25.8856  C.2   1 <0>         0.3223
11   C11     -30.8850  -11.0450   26.4553  C.3   1 <0>         0.0005
12   C12     -32.5785  -12.0801   24.2495  C.3   1 <0>         0.0374
13   C13     -24.1645  -17.4204   29.7444  C.3   1 <0>        -0.0530
14   C14     -24.2151  -16.5608   28.4500  C.3   1 <0>        -0.0524
15   C15     -25.5424  -18.0223   30.0956  C.3   1 <0>        -0.0524
16   C16     -25.3163  -15.4668   28.5209  C.3   1 <0>        -0.0432
17   C17     -26.6684  -16.9506   30.1136  C.3   1 <0>        -0.0432
18   C18     -26.7117  -16.1134   28.7985  C.3   1 <0>         0.0221
19   C19     -31.4992  -10.0995   25.3737  C.3   1 <0>         0.1101
20   N1      -31.5416  -14.1883   24.8830  N.2   1 <0>        -0.3567
21   N2      -32.7166  -10.7078   24.7810  N.3   1 <0>        -0.2984
22   O1      -31.0461   -8.1798   26.8389  O.co2 1 <0>        -0.4795
23   O2      -27.7650  -14.3025   29.7557  O.2   1 <0>        -0.2918
24   O3      -32.4222   -7.8807   25.0378  O.co2 1 <0>        -0.2492
25   H1      -28.9797  -17.0169   27.2830  H     1 <0>         0.0625
26   H2      -30.5687  -16.6977   25.5263  H     1 <0>         0.0638
27   H3      -29.0172  -12.8448   28.0850  H     1 <0>         0.0631
28   H4      -31.4196  -10.9363   27.4006  H     1 <0>         0.0334
29   H5      -29.8406  -10.7577   26.6197  H     1 <0>         0.0334
30   H6      -32.1764  -12.0456   23.2345  H     1 <0>         0.0488
31   H7      -33.5751  -12.5292   24.2133  H     1 <0>         0.0488
32   H8      -23.4375  -18.2232   29.6109  H     1 <0>         0.0265
33   H9      -23.8341  -16.8021   30.5831  H     1 <0>         0.0265
34   H10     -23.2458  -16.0902   28.2902  H     1 <0>         0.0265
35   H11     -24.4073  -17.2059   27.5951  H     1 <0>         0.0265
36   H12     -25.7874  -18.8034   29.3733  H     1 <0>         0.0265
37   H13     -25.4851  -18.4936   31.0820  H     1 <0>         0.0265
38   H14     -25.0635  -14.7504   29.3068  H     1 <0>         0.0272
39   H15     -25.3401  -14.9323   27.5672  H     1 <0>         0.0272
40   H16     -27.6294  -17.4449   30.2603  H     1 <0>         0.0272
41   H17     -26.4914  -16.2888   30.9668  H     1 <0>         0.0272
42   H18     -26.8666  -16.8073   27.9796  H     1 <0>         0.0381
43   H19     -30.7641   -9.9744   24.5740  H     1 <0>         0.0579
44   H20     -33.0786  -10.1131   24.0292  H     1 <0>         0.1231
@<TRIPOS>BOND
     1    1    2 ar
     2    1    5 ar
     3    2    7 ar
     4    3    4 ar
     5    3    5 ar
     6    4    6 2
     7    4    7 ar
     8    5    9 1
     9    6    8 1
    10    6   11 1
    11    7   20 2
    12    8   12 1
    13    8   20 1
    14    9   18 1
    15    9   23 2
    16   10   19 1
    17   10   22 1
    18   10   24 2
    19   11   19 1
    20   12   21 1
    21   13   14 1
    22   13   15 1
    23   14   16 1
    24   15   17 1
    25   16   18 1
    26   17   18 1
    27   19   21 1
    28    1   25 1
    29    2   26 1
    30    3   27 1
    31   11   28 1
    32   11   29 1
    33   12   30 1
    34   12   31 1
    35   13   32 1
    36   13   33 1
    37   14   34 1
    38   14   35 1
    39   15   36 1
    40   15   37 1
    41   16   38 1
    42   16   39 1
    43   17   40 1
    44   17   41 1
    45   18   42 1
    46   19   43 1
    47   21   44 1
@<TRIPOS>PROPERTY_DATA
  Total_Score	| 7.4461
  Crash		| -4.3918
  Polar		| 4.2326

@<TRIPOS>MOLECULE
ligand_uncharged45_000
   50    53     0     0     0
SMALL
USER_CHARGES

@<TRIPOS>ATOM
1    C1      -26.7043  -11.0215   27.7585  C.ar  1 <0>        -0.0563
2    C2      -27.4280   -9.8461   27.4764  C.ar  1 <0>        -0.0375
3    C3      -28.6559  -12.3838   27.2726  C.ar  1 <0>        -0.0489
4    C4      -29.3460  -11.2152   26.9106  C.ar  1 <0>         0.0035
5    C5      -27.3023  -12.3172   27.7216  C.ar  1 <0>        -0.0436
6    C6      -30.6234  -10.9981   26.4126  C.2   1 <0>        -0.0159
7    C7      -28.7567   -9.9620   27.0448  C.ar  1 <0>         0.0470
8    C8      -30.7422   -9.6157   26.2638  C.2   1 <0>         0.0343
9    C9      -25.3273  -17.8605   29.6745  C.2   1 <0>         0.2136
10   C10     -34.1641  -12.0442   25.5245  C.2   1 <0>         0.3223
11   C11     -31.6998  -11.9500   26.0423  C.3   1 <0>         0.0005
12   C12     -31.9683   -8.9704   25.7633  C.3   1 <0>         0.0374
13   C13     -24.9810  -14.4177   30.1480  C.3   1 <0>        -0.0518
14   C14     -25.9043  -13.3064   29.5834  C.3   1 <0>        -0.0462
15   C15     -27.2560  -14.8958   28.0452  C.3   1 <0>        -0.0455
16   C16     -25.7510  -15.6350   30.7147  C.3   1 <0>        -0.0419
17   C17     -26.4202  -16.1958   28.2000  C.3   1 <0>        -0.0414
18   C18     -26.4902  -13.5268   28.1466  C.3   1 <0>        -0.0158
19   C19     -26.2158  -16.6991   29.6650  C.3   1 <0>         0.0354
20   C20     -33.0686  -11.2064   26.0428  C.3   1 <0>         0.1101
21   N1      -29.6231   -9.0025   26.6831  N.2   1 <0>        -0.3567
22   N2      -24.0986  -17.8102   29.2104  N.am  1 <0>        -0.3291
23   N3      -32.9507   -9.9554   25.2436  N.4   1 <0>        -0.2984
24   O1      -34.2083  -12.3882   24.2187  O.co2 1 <0>        -0.4795
25   O2      -25.6534  -18.8914   30.2606  O.2   1 <0>        -0.2757
26   O3      -35.2477  -12.3135   26.2900  O.co2 1 <0>        -0.2492
27   H1      -25.7185  -10.9157   28.0122  H     1 <0>         0.0621
28   H2      -26.9857   -8.9284   27.5495  H     1 <0>         0.0638
29   H3      -29.1710  -13.2615   27.1956  H     1 <0>         0.0627
30   H4      -31.4784  -12.3531   25.0483  H     1 <0>         0.0334
31   H5      -31.7329  -12.7798   26.7526  H     1 <0>         0.0334
32   H6      -32.4055   -8.4022   26.5790  H     1 <0>         0.0488
33   H7      -31.7093   -8.2751   24.9637  H     1 <0>         0.0488
34   H8      -24.2699  -14.7264   29.3814  H     1 <0>         0.0266
35   H9      -24.3924  -13.9950   30.9661  H     1 <0>         0.0266
36   H10     -26.7298  -13.1206   30.2782  H     1 <0>         0.0271
37   H11     -25.2950  -12.4032   29.5862  H     1 <0>         0.0271
38   H12     -27.6921  -14.9620   27.0424  H     1 <0>         0.0271
39   H13     -28.0866  -14.9128   28.7642  H     1 <0>         0.0271
40   H14     -25.1200  -16.1106   31.4731  H     1 <0>         0.0272
41   H15     -26.6256  -15.2700   31.2623  H     1 <0>         0.0272
42   H16     -26.9416  -16.9918   27.6536  H     1 <0>         0.0273
43   H17     -25.4588  -16.0526   27.7012  H     1 <0>         0.0273
44   H18     -25.6504  -13.5868   27.4514  H     1 <0>         0.0349
45   H19     -27.2004  -17.0391   30.0019  H     1 <0>         0.0394
46   H20     -33.3145  -10.9354   27.0721  H     1 <0>         0.0579
47   H21     -23.7615  -16.9988   28.7885  H     1 <0>         0.1449
48   H22     -23.5262  -18.5960   29.2600  H     1 <0>         0.1449
49   H23     -33.8680   -9.5117   25.1822  H     1 <0>         0.1231
50   H24     -32.6581  -10.2098   24.2970  H     1 <0>         0.0000
@<TRIPOS>BOND
     1    1    2 ar
     2    1    5 ar
     3    2    7 ar
     4    3    4 ar
     5    3    5 ar
     6    4    6 1
     7    4    7 ar
     8    5   18 1
     9    6    8 2
    10    6   11 1
    11    7   21 1
    12    8   12 1
    13    8   21 1
    14    9   19 1
    15    9   22 am
    16    9   25 2
    17   10   20 1
    18   10   24 1
    19   10   26 2
    20   11   20 1
    21   12   23 1
    22   13   14 1
    23   13   16 1
    24   14   18 1
    25   15   17 1
    26   15   18 1
    27   16   19 1
    28   17   19 1
    29   20   23 1
    30    1   27 1
    31    2   28 1
    32    3   29 1
    33   11   30 1
    34   11   31 1
    35   12   32 1
    36   12   33 1
    37   13   34 1
    38   13   35 1
    39   14   36 1
    40   14   37 1
    41   15   38 1
    42   15   39 1
    43   16   40 1
    44   16   41 1
    45   17   42 1
    46   17   43 1
    47   18   44 1
    48   19   45 1
    49   20   46 1
    50   22   47 1
    51   22   48 1
    52   23   49 1
    53   23   50 1
@<TRIPOS>PROPERTY_DATA
  Total_Score	| 7.5740
  Crash		| -4.5173
  Polar		| 3.3398

@<TRIPOS>MOLECULE
ligand_uncharged45_001
   50    53     0     0     0
SMALL
USER_CHARGES

@<TRIPOS>ATOM
1    C1      -26.6142  -10.9200   28.3858  C.ar  1 <0>        -0.0563
2    C2      -27.3806   -9.7958   28.0153  C.ar  1 <0>        -0.0375
3    C3      -28.2947  -12.4170   27.4361  C.ar  1 <0>        -0.0489
4    C4      -29.0538  -11.2870   27.0860  C.ar  1 <0>         0.0035
5    C5      -27.0713  -12.2458   28.1387  C.ar  1 <0>        -0.0436
6    C6      -30.2904  -11.1574   26.4785  C.2   1 <0>        -0.0159
7    C7      -28.6205   -9.9991   27.3937  C.ar  1 <0>         0.0470
8    C8      -30.5527   -9.7914   26.4198  C.2   1 <0>         0.0343
9    C9      -24.5217  -17.5465   29.6855  C.2   1 <0>         0.2136
10   C10     -33.4709  -12.5204   24.8770  C.2   1 <0>         0.3223
11   C11     -31.1854  -12.1894   25.9342  C.3   1 <0>         0.0005
12   C12     -31.7936   -9.2504   25.8380  C.3   1 <0>         0.0374
13   C13     -26.6236  -15.1093   30.7741  C.3   1 <0>        -0.0518
14   C14     -27.1704  -13.8838   30.0000  C.3   1 <0>        -0.0462
15   C15     -26.0803  -14.5596   27.6985  C.3   1 <0>        -0.0455
16   C16     -26.8006  -16.4460   30.0045  C.3   1 <0>        -0.0419
17   C17     -25.0624  -15.6407   28.1712  C.3   1 <0>        -0.0414
18   C18     -26.3648  -13.4292   28.7436  C.3   1 <0>        -0.0158
19   C19     -25.6207  -16.8199   29.0431  C.3   1 <0>         0.0354
20   C20     -32.6286  -11.6310   25.7133  C.3   1 <0>         0.1101
21   N1      -29.5517   -9.1053   27.0079  N.2   1 <0>        -0.3567
22   N2      -24.3719  -17.6989   30.9900  N.am  1 <0>        -0.3291
23   N3      -32.5779  -10.2762   25.1003  N.4   1 <0>        -0.2984
24   O1      -32.9615  -13.6138   24.2583  O.co2 1 <0>        -0.4795
25   O2      -23.6834  -18.1020   28.9870  O.2   1 <0>        -0.2757
26   O3      -34.8184  -12.3758   24.8929  O.co2 1 <0>        -0.2492
27   H1      -25.7334  -10.7642   28.8855  H     1 <0>         0.0621
28   H2      -27.0533   -8.8518   28.2204  H     1 <0>         0.0638
29   H3      -28.6664  -13.3490   27.2394  H     1 <0>         0.0627
30   H4      -30.7488  -12.5193   24.9862  H     1 <0>         0.0334
31   H5      -31.2306  -13.0417   26.6189  H     1 <0>         0.0334
32   H6      -32.3962   -8.8394   26.6448  H     1 <0>         0.0488
33   H7      -31.5461   -8.4441   25.1458  H     1 <0>         0.0488
34   H8      -25.5697  -14.9550   31.0297  H     1 <0>         0.0266
35   H9      -27.1837  -15.1788   31.7125  H     1 <0>         0.0266
36   H10     -28.2133  -14.0886   29.7312  H     1 <0>         0.0271
37   H11     -27.1844  -13.0438   30.6983  H     1 <0>         0.0271
38   H12     -25.6696  -14.0930   26.7996  H     1 <0>         0.0271
39   H13     -27.0093  -15.0539   27.4066  H     1 <0>         0.0271
40   H14     -26.9439  -17.2544   30.7243  H     1 <0>         0.0272
41   H15     -27.7356  -16.4089   29.4317  H     1 <0>         0.0272
42   H16     -24.6117  -16.0801   27.2747  H     1 <0>         0.0273
43   H17     -24.2533  -15.1341   28.7022  H     1 <0>         0.0273
44   H18     -25.3892  -13.0924   29.1079  H     1 <0>         0.0349
45   H19     -26.0724  -17.5254   28.3410  H     1 <0>         0.0394
46   H20     -33.1202  -11.5440   26.6879  H     1 <0>         0.0579
47   H21     -25.0238  -17.3328   31.6098  H     1 <0>         0.1449
48   H22     -23.6351  -18.2295   31.3357  H     1 <0>         0.1449
49   H23     -33.5331   -9.9307   25.0029  H     1 <0>         0.1231
50   H24     -32.1679  -10.3690   24.1688  H     1 <0>         0.0000
@<TRIPOS>BOND
     1    1    2 ar
     2    1    5 ar
     3    2    7 ar
     4    3    4 ar
     5    3    5 ar
     6    4    6 1
     7    4    7 ar
     8    5   18 1
     9    6    8 2
    10    6   11 1
    11    7   21 1
    12    8   12 1
    13    8   21 1
    14    9   19 1
    15    9   22 am
    16    9   25 2
    17   10   20 1
    18   10   24 1
    19   10   26 2
    20   11   20 1
    21   12   23 1
    22   13   14 1
    23   13   16 1
    24   14   18 1
    25   15   17 1
    26   15   18 1
    27   16   19 1
    28   17   19 1
    29   20   23 1
    30    1   27 1
    31    2   28 1
    32    3   29 1
    33   11   30 1
    34   11   31 1
    35   12   32 1
    36   12   33 1
    37   13   34 1
    38   13   35 1
    39   14   36 1
    40   14   37 1
    41   15   38 1
    42   15   39 1
    43   16   40 1
    44   16   41 1
    45   17   42 1
    46   17   43 1
    47   18   44 1
    48   19   45 1
    49   20   46 1
    50   22   47 1
    51   22   48 1
    52   23   49 1
    53   23   50 1
@<TRIPOS>PROPERTY_DATA
  Total_Score	| 7.5539
  Crash		| -3.7507
  Polar		| 3.4831

@<TRIPOS>MOLECULE
ligand_uncharged45_002
   50    53     0     0     0
SMALL
USER_CHARGES

@<TRIPOS>ATOM
1    C1      -26.7847  -10.9576   27.9727  C.ar  1 <0>        -0.0563
2    C2      -27.5568   -9.8025   27.7195  C.ar  1 <0>        -0.0375
3    C3      -28.6547  -12.3940   27.4140  C.ar  1 <0>        -0.0489
4    C4      -29.3725  -11.2446   27.0593  C.ar  1 <0>         0.0035
5    C5      -27.3173  -12.2800   27.8922  C.ar  1 <0>        -0.0436
6    C6      -30.6132  -11.0986   26.4668  C.2   1 <0>        -0.0159
7    C7      -28.8645   -9.9627   27.2386  C.ar  1 <0>         0.0470
8    C8      -30.8148   -9.7322   26.3316  C.2   1 <0>         0.0343
9    C9      -25.1382  -17.8903   29.5788  C.2   1 <0>         0.2136
10   C10     -33.7012  -12.4632   24.7120  C.2   1 <0>         0.3223
11   C11     -31.4793  -12.1308   25.8748  C.3   1 <0>         0.0005
12   C12     -32.0103   -9.1845   25.6793  C.3   1 <0>         0.0374
13   C13     -24.8502  -14.4074   30.1668  C.3   1 <0>        -0.0518
14   C14     -25.8506  -13.3176   29.6867  C.3   1 <0>        -0.0462
15   C15     -27.1594  -14.8918   28.1053  C.3   1 <0>        -0.0455
16   C16     -25.5310  -15.6886   30.7080  C.3   1 <0>        -0.0419
17   C17     -26.2667  -16.1652   28.2018  C.3   1 <0>        -0.0414
18   C18     -26.4642  -13.4869   28.2538  C.3   1 <0>        -0.0158
19   C19     -26.0220  -16.7183   29.6400  C.3   1 <0>         0.0354
20   C20     -32.8971  -11.5601   25.5716  C.3   1 <0>         0.1101
21   N1      -29.7630   -9.0543   26.8370  N.2   1 <0>        -0.3567
22   N2      -23.8752  -17.7969   29.2210  N.am  1 <0>        -0.3291
23   N3      -32.7978  -10.2134   24.9404  N.4   1 <0>        -0.2984
24   O1      -33.1858  -13.6008   24.1896  O.co2 1 <0>        -0.4795
25   O2      -25.5319  -18.9825   29.9494  O.2   1 <0>        -0.2757
26   O3      -35.0403  -12.3078   24.6327  O.co2 1 <0>        -0.2492
27   H1      -25.8034  -10.8167   28.2227  H     1 <0>         0.0621
28   H2      -27.1535   -8.8644   27.8302  H     1 <0>         0.0638
29   H3      -29.1181  -13.3053   27.3030  H     1 <0>         0.0627
30   H4      -30.9914  -12.4565   24.9517  H     1 <0>         0.0334
31   H5      -31.5620  -12.9900   26.5451  H     1 <0>         0.0334
32   H6      -32.6296   -8.7252   26.4466  H     1 <0>         0.0488
33   H7      -31.6878   -8.4156   24.9743  H     1 <0>         0.0488
34   H8      -24.1525  -14.6371   29.3615  H     1 <0>         0.0266
35   H9      -24.2617  -13.9887   30.9881  H     1 <0>         0.0266
36   H10     -26.6673  -13.2243   30.4116  H     1 <0>         0.0271
37   H11     -25.2854  -12.3793   29.7349  H     1 <0>         0.0271
38   H12     -27.6040  -14.9466   27.1117  H     1 <0>         0.0271
39   H13     -27.9779  -14.9751   28.8263  H     1 <0>         0.0271
40   H14     -24.8388  -16.1736   31.4021  H     1 <0>         0.0272
41   H15     -26.3838  -15.3817   31.3188  H     1 <0>         0.0272
42   H16     -26.7713  -16.9655   27.6469  H     1 <0>         0.0273
43   H17     -25.3210  -15.9799   27.6870  H     1 <0>         0.0273
44   H18     -25.6296  -13.4707   27.5496  H     1 <0>         0.0349
45   H19     -27.0027  -17.0736   29.9915  H     1 <0>         0.0394
46   H20     -33.4334  -11.4533   26.5200  H     1 <0>         0.0579
47   H21     -23.4937  -16.9473   28.9505  H     1 <0>         0.1449
48   H22     -23.3135  -18.5890   29.2345  H     1 <0>         0.1449
49   H23     -33.7432   -9.8528   24.8203  H     1 <0>         0.1231
50   H24     -32.3687  -10.3259   24.0186  H     1 <0>         0.0000
@<TRIPOS>BOND
     1    1    2 ar
     2    1    5 ar
     3    2    7 ar
     4    3    4 ar
     5    3    5 ar
     6    4    6 1
     7    4    7 ar
     8    5   18 1
     9    6    8 2
    10    6   11 1
    11    7   21 1
    12    8   12 1
    13    8   21 1
    14    9   19 1
    15    9   22 am
    16    9   25 2
    17   10   20 1
    18   10   24 1
    19   10   26 2
    20   11   20 1
    21   12   23 1
    22   13   14 1
    23   13   16 1
    24   14   18 1
    25   15   17 1
    26   15   18 1
    27   16   19 1
    28   17   19 1
    29   20   23 1
    30    1   27 1
    31    2   28 1
    32    3   29 1
    33   11   30 1
    34   11   31 1
    35   12   32 1
    36   12   33 1
    37   13   34 1
    38   13   35 1
    39   14   36 1
    40   14   37 1
    41   15   38 1
    42   15   39 1
    43   16   40 1
    44   16   41 1
    45   17   42 1
    46   17   43 1
    47   18   44 1
    48   19   45 1
    49   20   46 1
    50   22   47 1
    51   22   48 1
    52   23   49 1
    53   23   50 1
@<TRIPOS>PROPERTY_DATA
  Total_Score	| 7.3813
  Crash		| -4.6883
  Polar		| 3.0901

@<TRIPOS>MOLECULE
ligand_uncharged51_000
   56    59     0     0     0
SMALL
USER_CHARGES

@<TRIPOS>ATOM
1    C1      -26.5710  -10.4018   28.2890  C.ar  1 <0>        -0.0563
2    C2      -27.3575   -9.2997   27.8833  C.ar  1 <0>        -0.0375
3    C3      -28.3107  -11.9362   27.5345  C.ar  1 <0>        -0.0489
4    C4      -29.0667  -10.8356   27.1147  C.ar  1 <0>         0.0035
5    C5      -27.0381  -11.7342   28.1280  C.ar  1 <0>        -0.0436
6    C6      -30.2940  -10.7626   26.4779  C.2   1 <0>        -0.0159
7    C7      -28.6143   -9.5343   27.2967  C.ar  1 <0>         0.0470
8    C8      -30.5543   -9.4087   26.3011  C.2   1 <0>         0.0343
9    C9      -33.3234  -12.2851   24.7239  C.2   1 <0>         0.3223
10   C10     -28.4487  -16.1140   27.2635  C.2   1 <0>         0.2130
11   C11     -31.1413  -11.8462   25.9531  C.3   1 <0>         0.0005
12   C12     -31.7857   -8.9261   25.6513  C.3   1 <0>         0.0374
13   C13     -26.2501  -14.7792   30.4757  C.3   1 <0>        -0.0508
14   C14     -26.9363  -13.5456   29.8411  C.3   1 <0>        -0.0461
15   C15     -25.9062  -13.8388   27.3719  C.3   1 <0>        -0.0445
16   C16     -26.5182  -16.1445   29.7880  C.3   1 <0>        -0.0345
17   C17     -25.2215  -15.1955   27.6733  C.3   1 <0>        -0.0340
18   C18     -26.2330  -12.9159   28.5918  C.3   1 <0>        -0.0158
19   C19     -32.5748  -11.3419   25.5909  C.3   1 <0>         0.1101
20   C20     -26.1458  -16.2954   28.2726  C.3   1 <0>         0.0231
21   C21     -30.3432  -15.6082   25.7019  C.3   1 <0>        -0.0570
22   C22     -29.4330  -16.6705   26.3620  C.3   1 <0>         0.0211
23   N1      -29.5398   -8.6795   26.8155  N.2   1 <0>        -0.3567
24   N2      -27.2190  -16.6264   27.3683  N.am  1 <0>        -0.3125
25   N3      -32.5321  -10.0012   24.9392  N.4   1 <0>        -0.2984
26   O1      -32.7061  -13.2805   24.0437  O.co2 1 <0>        -0.4795
27   O2      -34.6734  -12.3370   24.7862  O.co2 1 <0>        -0.2492
28   O3      -28.8228  -15.2033   27.9845  O.2   1 <0>        -0.2758
29   H1      -25.6544  -10.2247   28.7082  H     1 <0>         0.0621
30   H2      -27.0075   -8.3464   27.9948  H     1 <0>         0.0638
31   H3      -28.6978  -12.8697   27.4016  H     1 <0>         0.0627
32   H4      -30.6320  -12.2391   25.0677  H     1 <0>         0.0334
33   H5      -31.2183  -12.6429   26.6928  H     1 <0>         0.0334
34   H6      -32.4245   -8.4789   26.4116  H     1 <0>         0.0488
35   H7      -31.5225   -8.1582   24.9253  H     1 <0>         0.0488
36   H8      -25.1726  -14.6061   30.5466  H     1 <0>         0.0266
37   H9      -26.6211  -14.8758   31.5020  H     1 <0>         0.0266
38   H10     -27.9773  -13.7756   29.6408  H     1 <0>         0.0271
39   H11     -26.9647  -12.7708   30.6076  H     1 <0>         0.0271
40   H12     -25.2340  -13.2741   26.7138  H     1 <0>         0.0272
41   H13     -26.7926  -14.0515   26.7753  H     1 <0>         0.0272
42   H14     -25.9529  -16.8908   30.3606  H     1 <0>         0.0283
43   H15     -27.5635  -16.4082   29.9450  H     1 <0>         0.0283
44   H16     -24.8179  -15.5732   26.7268  H     1 <0>         0.0283
45   H17     -24.3672  -15.0256   28.3329  H     1 <0>         0.0283
46   H18     -25.2625  -12.5638   28.9589  H     1 <0>         0.0349
47   H19     -33.1367  -11.2397   26.5239  H     1 <0>         0.0579
48   H20     -25.5215  -17.1962   28.2431  H     1 <0>         0.0498
49   H21     -30.9122  -15.0651   26.4527  H     1 <0>         0.0234
50   H22     -29.7565  -14.9030   25.1082  H     1 <0>         0.0234
51   H23     -31.0551  -16.1140   25.0476  H     1 <0>         0.0234
52   H24     -28.9479  -17.2493   25.5710  H     1 <0>         0.0356
53   H25     -30.0696  -17.3551   26.9263  H     1 <0>         0.0356
54   H26     -27.0028  -17.3044   26.7093  H     1 <0>         0.1490
55   H27     -33.5023   -9.6957   24.8162  H     1 <0>         0.1231
56   H28     -32.0966  -10.1023   24.0209  H     1 <0>         0.0000
@<TRIPOS>BOND
     1    1    2 ar
     2    1    5 ar
     3    2    7 ar
     4    3    4 ar
     5    3    5 ar
     6    4    6 1
     7    4    7 ar
     8    5   18 1
     9    6    8 2
    10    6   11 1
    11    7   23 1
    12    8   12 1
    13    8   23 1
    14    9   19 1
    15    9   26 1
    16    9   27 2
    17   10   22 1
    18   10   24 am
    19   10   28 2
    20   11   19 1
    21   12   25 1
    22   13   14 1
    23   13   16 1
    24   14   18 1
    25   15   17 1
    26   15   18 1
    27   16   20 1
    28   17   20 1
    29   19   25 1
    30   20   24 1
    31   21   22 1
    32    1   29 1
    33    2   30 1
    34    3   31 1
    35   11   32 1
    36   11   33 1
    37   12   34 1
    38   12   35 1
    39   13   36 1
    40   13   37 1
    41   14   38 1
    42   14   39 1
    43   15   40 1
    44   15   41 1
    45   16   42 1
    46   16   43 1
    47   17   44 1
    48   17   45 1
    49   18   46 1
    50   19   47 1
    51   20   48 1
    52   21   49 1
    53   21   50 1
    54   21   51 1
    55   22   52 1
    56   22   53 1
    57   24   54 1
    58   25   55 1
    59   25   56 1
@<TRIPOS>PROPERTY_DATA
  Total_Score	| 7.5257
  Crash		| -4.8335
  Polar		| 2.0711

@<TRIPOS>MOLECULE
ligand_uncharged51_001
   56    59     0     0     0
SMALL
USER_CHARGES

@<TRIPOS>ATOM
1    C1      -29.1131  -16.1420   26.7202  C.ar  1 <0>        -0.0563
2    C2      -30.1822  -15.9581   25.8234  C.ar  1 <0>        -0.0375
3    C3      -29.0302  -13.7486   27.1681  C.ar  1 <0>        -0.0489
4    C4      -30.1200  -13.5743   26.2887  C.ar  1 <0>         0.0035
5    C5      -28.4845  -15.0455   27.3721  C.ar  1 <0>        -0.0436
6    C6      -30.8531  -12.4631   25.8929  C.2   1 <0>        -0.0159
7    C7      -30.6627  -14.6614   25.6019  C.ar  1 <0>         0.0470
8    C8      -31.8107  -12.9337   24.9912  C.2   1 <0>         0.0343
9    C9      -31.9044   -8.7685   25.9970  C.2   1 <0>         0.3223
10   C10     -24.9612  -19.5872   29.8919  C.2   1 <0>         0.2130
11   C11     -30.7472  -11.0406   26.3004  C.3   1 <0>         0.0005
12   C12     -32.8398  -12.0536   24.4026  C.3   1 <0>         0.0374
13   C13     -26.4134  -15.2893   30.7065  C.3   1 <0>        -0.0508
14   C14     -27.6277  -15.3807   29.7315  C.3   1 <0>        -0.0461
15   C15     -26.2943  -16.3587   27.7503  C.3   1 <0>        -0.0445
16   C16     -25.5816  -16.5905   30.8622  C.3   1 <0>        -0.0345
17   C17     -24.8560  -16.3197   28.3285  C.3   1 <0>        -0.0340
18   C18     -27.2540  -15.2183   28.2260  C.3   1 <0>        -0.0158
19   C19     -31.6702  -10.1145   25.4353  C.3   1 <0>         0.1101
20   C20     -24.6514  -17.0577   29.6836  C.3   1 <0>         0.0231
21   C21     -25.2270  -22.0926   29.5954  C.3   1 <0>        -0.0570
22   C22     -24.2906  -20.8641   29.7033  C.3   1 <0>         0.0211
23   N1      -31.6513  -14.2549   24.7859  N.2   1 <0>        -0.3567
24   N2      -24.3978  -18.4665   29.4490  N.am  1 <0>        -0.3125
25   N3      -32.9697  -10.7960   25.1811  N.4   1 <0>        -0.2984
26   O1      -31.3023   -8.3466   27.1333  O.co2 1 <0>        -0.4795
27   O2      -32.5202   -7.8439   25.2268  O.co2 1 <0>        -0.2492
28   O3      -25.9614  -19.5904   30.5880  O.2   1 <0>        -0.2758
29   H1      -28.7826  -17.0942   26.8638  H     1 <0>         0.0621
30   H2      -30.6063  -16.7578   25.3497  H     1 <0>         0.0638
31   H3      -28.6333  -12.9310   27.6363  H     1 <0>         0.0627
32   H4      -31.0259  -10.9785   27.3542  H     1 <0>         0.0334
33   H5      -29.7103  -10.7099   26.1976  H     1 <0>         0.0334
34   H6      -32.5711  -11.8272   23.3678  H     1 <0>         0.0488
35   H7      -33.8046  -12.5632   24.4123  H     1 <0>         0.0488
36   H8      -25.7568  -14.4668   30.4167  H     1 <0>         0.0266
37   H9      -26.8176  -15.0421   31.6960  H     1 <0>         0.0266
38   H10     -28.1565  -16.3274   29.8846  H     1 <0>         0.0271
39   H11     -28.3246  -14.5800   30.0025  H     1 <0>         0.0271
40   H12     -26.2057  -16.2972   26.6657  H     1 <0>         0.0272
41   H13     -26.7339  -17.3273   27.9816  H     1 <0>         0.0272
42   H14     -24.9473  -16.4574   31.7460  H     1 <0>         0.0283
43   H15     -26.3012  -17.3510   31.1253  H     1 <0>         0.0283
44   H16     -24.1763  -16.7541   27.5881  H     1 <0>         0.0283
45   H17     -24.5420  -15.2783   28.4320  H     1 <0>         0.0283
46   H18     -26.6839  -14.2901   28.1379  H     1 <0>         0.0349
47   H19     -31.1727   -9.9503   24.4751  H     1 <0>         0.0579
48   H20     -23.6566  -16.7385   29.9975  H     1 <0>         0.0498
49   H21     -25.7369  -22.2638   30.5445  H     1 <0>         0.0234
50   H22     -25.9790  -21.9378   28.8209  H     1 <0>         0.0234
51   H23     -24.6479  -22.9828   29.3513  H     1 <0>         0.0234
52   H24     -23.6775  -20.8316   28.8028  H     1 <0>         0.0356
53   H25     -23.6207  -21.0227   30.5511  H     1 <0>         0.0356
54   H26     -23.6262  -18.6235   28.8839  H     1 <0>         0.1490
55   H27     -33.6249  -10.1818   24.6917  H     1 <0>         0.1231
56   H28     -33.3843  -11.0265   26.0878  H     1 <0>         0.0000
@<TRIPOS>BOND
     1    1    2 ar
     2    1    5 ar
     3    2    7 ar
     4    3    4 ar
     5    3    5 ar
     6    4    6 1
     7    4    7 ar
     8    5   18 1
     9    6    8 2
    10    6   11 1
    11    7   23 1
    12    8   12 1
    13    8   23 1
    14    9   19 1
    15    9   26 1
    16    9   27 2
    17   10   22 1
    18   10   24 am
    19   10   28 2
    20   11   19 1
    21   12   25 1
    22   13   14 1
    23   13   16 1
    24   14   18 1
    25   15   17 1
    26   15   18 1
    27   16   20 1
    28   17   20 1
    29   19   25 1
    30   20   24 1
    31   21   22 1
    32    1   29 1
    33    2   30 1
    34    3   31 1
    35   11   32 1
    36   11   33 1
    37   12   34 1
    38   12   35 1
    39   13   36 1
    40   13   37 1
    41   14   38 1
    42   14   39 1
    43   15   40 1
    44   15   41 1
    45   16   42 1
    46   16   43 1
    47   17   44 1
    48   17   45 1
    49   18   46 1
    50   19   47 1
    51   20   48 1
    52   21   49 1
    53   21   50 1
    54   21   51 1
    55   22   52 1
    56   22   53 1
    57   24   54 1
    58   25   55 1
    59   25   56 1
@<TRIPOS>PROPERTY_DATA
  Total_Score	| 7.4271
  Crash		| -6.1313
  Polar		| 4.2023

@<TRIPOS>MOLECULE
ligand_uncharged51_002
   56    59     0     0     0
SMALL
USER_CHARGES

@<TRIPOS>ATOM
1    C1      -29.1548  -16.1018   26.5763  C.ar  1 <0>        -0.0563
2    C2      -30.2624  -15.9266   25.7305  C.ar  1 <0>        -0.0375
3    C3      -29.0691  -13.7048   27.0156  C.ar  1 <0>        -0.0489
4    C4      -30.1931  -13.5425   26.1828  C.ar  1 <0>         0.0035
5    C5      -28.5059  -14.9951   27.2090  C.ar  1 <0>        -0.0436
6    C6      -30.9242  -12.4294   25.8053  C.2   1 <0>        -0.0159
7    C7      -30.7519  -14.6293   25.5165  C.ar  1 <0>         0.0470
8    C8      -31.8847  -12.8899   24.9041  C.2   1 <0>         0.0343
9    C9      -31.8469   -8.7215   25.8706  C.2   1 <0>         0.3223
10   C10     -24.1076  -19.3719   29.6586  C.2   1 <0>         0.2130
11   C11     -30.8055  -11.0211   26.2385  C.3   1 <0>         0.0005
12   C12     -32.8478  -11.9897   24.2551  C.3   1 <0>         0.0374
13   C13     -26.4619  -14.9755   30.5655  C.3   1 <0>        -0.0508
14   C14     -27.6393  -14.9455   29.5527  C.3   1 <0>        -0.0461
15   C15     -26.4150  -16.4120   27.7717  C.3   1 <0>        -0.0445
16   C16     -25.8957  -16.3909   30.8554  C.3   1 <0>        -0.0345
17   C17     -24.9875  -16.4464   28.3856  C.3   1 <0>        -0.0340
18   C18     -27.2611  -15.1232   28.0494  C.3   1 <0>        -0.0158
19   C19     -31.6197  -10.0666   25.3040  C.3   1 <0>         0.1101
20   C20     -24.9064  -17.0257   29.8301  C.3   1 <0>         0.0231
21   C21     -25.7717  -21.3301   29.9336  C.3   1 <0>        -0.0570
22   C22     -24.3219  -20.8083   29.7803  C.3   1 <0>         0.0211
23   N1      -31.7445  -14.2130   24.7092  N.2   1 <0>        -0.3567
24   N2      -25.0667  -18.4664   29.8484  N.am  1 <0>        -0.3125
25   N3      -32.9304  -10.6788   24.9420  N.4   1 <0>        -0.2984
26   O1      -31.2517   -8.3044   27.0085  O.co2 1 <0>        -0.4795
27   O2      -32.5067   -7.8019   25.1275  O.co2 1 <0>        -0.2492
28   O3      -22.9625  -19.0089   29.4176  O.2   1 <0>        -0.2758
29   H1      -28.8157  -17.0520   26.7238  H     1 <0>         0.0621
30   H2      -30.7083  -16.7291   25.2754  H     1 <0>         0.0638
31   H3      -28.6556  -12.8774   27.4503  H     1 <0>         0.0627
32   H4      -31.1736  -10.9577   27.2654  H     1 <0>         0.0334
33   H5      -29.7536  -10.7263   26.2287  H     1 <0>         0.0334
34   H6      -32.5376  -11.8428   23.2202  H     1 <0>         0.0488
35   H7      -33.8393  -12.4435   24.2714  H     1 <0>         0.0488
36   H8      -25.6615  -14.3036   30.2436  H     1 <0>         0.0266
37   H9      -26.8489  -14.5896   31.5133  H     1 <0>         0.0266
38   H10     -28.3737  -15.7060   29.8342  H     1 <0>         0.0271
39   H11     -28.1296  -13.9736   29.6754  H     1 <0>         0.0271
40   H12     -26.3058  -16.5113   26.6898  H     1 <0>         0.0272
41   H13     -26.9698  -17.2786   28.1236  H     1 <0>         0.0272
42   H14     -25.3673  -16.3398   31.8135  H     1 <0>         0.0283
43   H15     -26.7496  -17.0567   31.0023  H     1 <0>         0.0283
44   H16     -24.3437  -17.0525   27.7461  H     1 <0>         0.0283
45   H17     -24.5587  -15.4427   28.3688  H     1 <0>         0.0283
46   H18     -26.6120  -14.2830   27.7753  H     1 <0>         0.0349
47   H19     -31.0445   -9.9210   24.3864  H     1 <0>         0.0579
48   H20     -23.8994  -16.7922   30.1926  H     1 <0>         0.0498
49   H21     -26.2167  -20.9737   30.8622  H     1 <0>         0.0234
50   H22     -26.3888  -21.0099   29.0914  H     1 <0>         0.0234
51   H23     -25.7544  -22.4239   29.9550  H     1 <0>         0.0234
52   H24     -23.9075  -21.2811   28.8874  H     1 <0>         0.0356
53   H25     -23.7389  -21.1647   30.6340  H     1 <0>         0.0356
54   H26     -25.9384  -18.8086   30.1128  H     1 <0>         0.1490
55   H27     -33.4600  -10.0601   24.3229  H     1 <0>         0.1231
56   H28     -33.4678  -10.8069   25.8035  H     1 <0>         0.0000
@<TRIPOS>BOND
     1    1    2 ar
     2    1    5 ar
     3    2    7 ar
     4    3    4 ar
     5    3    5 ar
     6    4    6 1
     7    4    7 ar
     8    5   18 1
     9    6    8 2
    10    6   11 1
    11    7   23 1
    12    8   12 1
    13    8   23 1
    14    9   19 1
    15    9   26 1
    16    9   27 2
    17   10   22 1
    18   10   24 am
    19   10   28 2
    20   11   19 1
    21   12   25 1
    22   13   14 1
    23   13   16 1
    24   14   18 1
    25   15   17 1
    26   15   18 1
    27   16   20 1
    28   17   20 1
    29   19   25 1
    30   20   24 1
    31   21   22 1
    32    1   29 1
    33    2   30 1
    34    3   31 1
    35   11   32 1
    36   11   33 1
    37   12   34 1
    38   12   35 1
    39   13   36 1
    40   13   37 1
    41   14   38 1
    42   14   39 1
    43   15   40 1
    44   15   41 1
    45   16   42 1
    46   16   43 1
    47   17   44 1
    48   17   45 1
    49   18   46 1
    50   19   47 1
    51   20   48 1
    52   21   49 1
    53   21   50 1
    54   21   51 1
    55   22   52 1
    56   22   53 1
    57   24   54 1
    58   25   55 1
    59   25   56 1
@<TRIPOS>PROPERTY_DATA
  Total_Score	| 5.8753
  Crash		| -6.9451
  Polar		| 3.8784

@<TRIPOS>MOLECULE
ligand_uncharged58_000
   31    33     0     0     0
SMALL
USER_CHARGES

@<TRIPOS>ATOM
1    C1      -25.0071  -13.6712   29.8144  C.1   1 <0>         0.0672
2    C2      -27.0781  -14.5324   27.9196  C.ar  1 <0>        -0.0556
3    C3      -28.3339  -14.8503   27.3760  C.ar  1 <0>        -0.0375
4    C4      -27.5762  -12.1453   27.7665  C.ar  1 <0>        -0.0482
5    C5      -28.8160  -12.4740   27.1930  C.ar  1 <0>         0.0035
6    C6      -29.8772  -11.7067   26.7224  C.2   1 <0>        -0.0159
7    C7      -26.6914  -13.1845   28.1666  C.ar  1 <0>        -0.0329
8    C8      -29.1978  -13.8044   27.0172  C.ar  1 <0>         0.0470
9    C9      -30.8481  -12.6050   26.2844  C.2   1 <0>         0.0343
10   C10     -31.5872   -8.4086   25.9333  C.2   1 <0>         0.3223
11   C11     -30.0228  -10.2415   26.6288  C.3   1 <0>         0.0005
12   C12     -32.1421  -12.1751   25.7239  C.3   1 <0>         0.0374
13   C13     -31.5085   -9.8184   26.3852  C.3   1 <0>         0.1101
14   C14     -25.3725  -12.8496   28.7778  C.3   1 <0>         0.0598
15   N1      -24.7155  -14.3761   30.6719  N.1   1 <0>        -0.1962
16   N2      -30.4232  -13.8692   26.4759  N.2   1 <0>        -0.3567
17   N3      -32.1532  -10.7274   25.3933  N.4   1 <0>        -0.2984
18   O1      -32.4643   -8.0282   24.9727  O.co2 1 <0>        -0.4795
19   O2      -30.8442   -7.4531   26.5325  O.co2 1 <0>        -0.2492
20   H1      -26.4478  -15.3007   28.1601  H     1 <0>         0.0621
21   H2      -28.6129  -15.8261   27.2367  H     1 <0>         0.0638
22   H3      -27.3229  -11.1604   27.8902  H     1 <0>         0.0627
23   H4      -29.6694   -9.7903   27.5583  H     1 <0>         0.0334
24   H5      -29.3853   -9.8962   25.8096  H     1 <0>         0.0334
25   H6      -32.3365  -12.7333   24.8042  H     1 <0>         0.0488
26   H7      -32.9382  -12.4030   26.4376  H     1 <0>         0.0488
27   H8      -32.0579   -9.8882   27.3284  H     1 <0>         0.0579
28   H9      -25.3699  -11.8276   29.1698  H     1 <0>         0.0467
29   H10     -24.6024  -12.9196   28.0063  H     1 <0>         0.0467
30   H11     -31.6521  -10.6128   24.5088  H     1 <0>         0.1231
31   H12     -33.1272  -10.4368   25.2538  H     1 <0>         0.0000
@<TRIPOS>BOND
     1    1   14 1
     2    1   15 3
     3    2    3 ar
     4    2    7 ar
     5    3    8 ar
     6    4    5 ar
     7    4    7 ar
     8    5    6 1
     9    5    8 ar
    10    6    9 2
    11    6   11 1
    12    7   14 1
    13    8   16 1
    14    9   12 1
    15    9   16 1
    16   10   13 1
    17   10   18 1
    18   10   19 2
    19   11   13 1
    20   12   17 1
    21   13   17 1
    22    2   20 1
    23    3   21 1
    24    4   22 1
    25   11   23 1
    26   11   24 1
    27   12   25 1
    28   12   26 1
    29   13   27 1
    30   14   28 1
    31   14   29 1
    32   17   30 1
    33   17   31 1
@<TRIPOS>PROPERTY_DATA
  Total_Score	| 8.8252
  Crash		| -1.1052
  Polar		| 6.5963

@<TRIPOS>MOLECULE
ligand_uncharged58_001
   31    33     0     0     0
SMALL
USER_CHARGES

@<TRIPOS>ATOM
1    C1      -31.6231   -9.0150   26.3849  C.1   1 <0>         0.0672
2    C2      -32.3715  -12.1130   24.4335  C.ar  1 <0>        -0.0556
3    C3      -32.0344  -13.4847   24.3399  C.ar  1 <0>        -0.0375
4    C4      -30.8561  -11.8395   26.3263  C.ar  1 <0>        -0.0482
5    C5      -30.5343  -13.2009   26.2254  C.ar  1 <0>         0.0035
6    C6      -29.6660  -14.0029   26.9536  C.2   1 <0>        -0.0159
7    C7      -31.7833  -11.2676   25.4181  C.ar  1 <0>        -0.0329
8    C8      -31.1080  -14.0144   25.2508  C.ar  1 <0>         0.0470
9    C9      -29.7736  -15.2780   26.4117  C.2   1 <0>         0.0343
10   C10     -27.0382  -14.6002   29.6402  C.2   1 <0>         0.3223
11   C11     -28.7959  -13.6570   28.0995  C.3   1 <0>         0.0005
12   C12     -29.0150  -16.4264   26.9437  C.3   1 <0>         0.0374
13   C13     -27.7447  -14.7778   28.3521  C.3   1 <0>         0.1101
14   C14     -32.1893   -9.8287   25.4282  C.3   1 <0>         0.0598
15   N1      -31.1398   -8.3512   27.1700  N.1   1 <0>        -0.1962
16   N2      -30.6287  -15.2686   25.3669  N.2   1 <0>        -0.3567
17   N3      -28.3883  -16.1201   28.2630  N.4   1 <0>        -0.2984
18   O1      -27.7026  -14.2173   30.7513  O.co2 1 <0>        -0.4795
19   O2      -25.8254  -15.1734   29.8205  O.co2 1 <0>        -0.2492
20   H1      -33.0559  -11.7317   23.7769  H     1 <0>         0.0621
21   H2      -32.4610  -14.0794   23.6305  H     1 <0>         0.0638
22   H3      -30.4136  -11.2900   27.0602  H     1 <0>         0.0627
23   H4      -28.2812  -12.7137   27.8997  H     1 <0>         0.0334
24   H5      -29.4409  -13.5235   28.9705  H     1 <0>         0.0334
25   H6      -29.6982  -17.2655   27.0696  H     1 <0>         0.0488
26   H7      -28.2479  -16.7090   26.2226  H     1 <0>         0.0488
27   H8      -26.9919  -14.7157   27.5641  H     1 <0>         0.0579
28   H9      -33.2706   -9.7717   25.5600  H     1 <0>         0.0467
29   H10     -31.9443   -9.3812   24.4638  H     1 <0>         0.0467
30   H11     -29.1214  -16.1718   28.9774  H     1 <0>         0.1231
31   H12     -27.6858  -16.8354   28.4592  H     1 <0>         0.0000
@<TRIPOS>BOND
     1    1   14 1
     2    1   15 3
     3    2    3 ar
     4    2    7 ar
     5    3    8 ar
     6    4    5 ar
     7    4    7 ar
     8    5    6 1
     9    5    8 ar
    10    6    9 2
    11    6   11 1
    12    7   14 1
    13    8   16 1
    14    9   12 1
    15    9   16 1
    16   10   13 1
    17   10   18 1
    18   10   19 2
    19   11   13 1
    20   12   17 1
    21   13   17 1
    22    2   20 1
    23    3   21 1
    24    4   22 1
    25   11   23 1
    26   11   24 1
    27   12   25 1
    28   12   26 1
    29   13   27 1
    30   14   28 1
    31   14   29 1
    32   17   30 1
    33   17   31 1
@<TRIPOS>PROPERTY_DATA
  Total_Score	| 7.8188
  Crash		| -1.2551
  Polar		| 3.6852

@<TRIPOS>MOLECULE
ligand_uncharged58_002
   31    33     0     0     0
SMALL
USER_CHARGES

@<TRIPOS>ATOM
1    C1      -25.2540   -7.5314   27.9544  C.1   1 <0>         0.0672
2    C2      -25.8858  -10.8140   29.0169  C.ar  1 <0>        -0.0556
3    C3      -26.5673  -11.9871   28.6302  C.ar  1 <0>        -0.0375
4    C4      -27.5312   -9.4399   27.8455  C.ar  1 <0>        -0.0482
5    C5      -28.2024  -10.6144   27.4691  C.ar  1 <0>         0.0035
6    C6      -29.3529  -10.8346   26.7256  C.2   1 <0>        -0.0159
7    C7      -26.3467   -9.5286   28.6232  C.ar  1 <0>        -0.0329
8    C8      -27.7290  -11.8691   27.8501  C.ar  1 <0>         0.0470
9    C9      -29.5175  -12.2174   26.6700  C.2   1 <0>         0.0343
10   C10     -32.4144   -9.7113   24.7580  C.2   1 <0>         0.3223
11   C11     -30.2695   -9.8697   26.0804  C.3   1 <0>         0.0005
12   C12     -30.6472  -12.8537   25.9717  C.3   1 <0>         0.0374
13   C13     -31.6276  -10.5426   25.6971  C.3   1 <0>         0.1101
14   C14     -25.6156   -8.2974   29.0329  C.3   1 <0>         0.0598
15   N1      -24.9559   -6.8910   27.0484  N.1   1 <0>        -0.1962
16   N2      -28.5369  -12.8278   27.3631  N.2   1 <0>        -0.3567
17   N3      -31.3846  -11.8941   25.1120  N.4   1 <0>        -0.2984
18   O1      -33.1367  -10.2767   23.7640  O.co2 1 <0>        -0.4795
19   O2      -32.4971   -8.3676   24.9115  O.co2 1 <0>        -0.2492
20   H1      -25.0484  -10.9057   29.5933  H     1 <0>         0.0621
21   H2      -26.2266  -12.9073   28.9159  H     1 <0>         0.0638
22   H3      -27.8891   -8.5352   27.5367  H     1 <0>         0.0627
23   H4      -30.4652   -9.0449   26.7706  H     1 <0>         0.0334
24   H5      -29.7707   -9.4667   25.1941  H     1 <0>         0.0334
25   H6      -30.2754  -13.6624   25.3415  H     1 <0>         0.0488
26   H7      -31.3298  -13.2742   26.7098  H     1 <0>         0.0488
27   H8      -32.2273  -10.6620   26.6060  H     1 <0>         0.0579
28   H9      -24.7043   -8.5356   29.5902  H     1 <0>         0.0467
29   H10     -26.2528   -7.6976   29.6857  H     1 <0>         0.0467
30   H11     -30.8515  -11.7484   24.2515  H     1 <0>         0.1231
31   H12     -32.2831  -12.3169   24.8655  H     1 <0>         0.0000
@<TRIPOS>BOND
     1    1   14 1
     2    1   15 3
     3    2    3 ar
     4    2    7 ar
     5    3    8 ar
     6    4    5 ar
     7    4    7 ar
     8    5    6 1
     9    5    8 ar
    10    6    9 2
    11    6   11 1
    12    7   14 1
    13    8   16 1
    14    9   12 1
    15    9   16 1
    16   10   13 1
    17   10   18 1
    18   10   19 2
    19   11   13 1
    20   12   17 1
    21   13   17 1
    22    2   20 1
    23    3   21 1
    24    4   22 1
    25   11   23 1
    26   11   24 1
    27   12   25 1
    28   12   26 1
    29   13   27 1
    30   14   28 1
    31   14   29 1
    32   17   30 1
    33   17   31 1
@<TRIPOS>PROPERTY_DATA
  Total_Score	| 6.5848
  Crash		| -1.5937
  Polar		| 3.3829

@<TRIPOS>MOLECULE
ligand_negative1_000
   29    31     0     0     0
SMALL
USER_CHARGES

@<TRIPOS>ATOM
1    C1      -27.1637  -14.6905   27.8424  C.ar  1 <0>        -0.0458
2    C2      -28.4501  -14.9655   27.3414  C.ar  1 <0>        -0.0370
3    C3      -27.5281  -12.2900   27.5416  C.ar  1 <0>        -0.0383
4    C4      -28.8139  -12.5781   27.0533  C.ar  1 <0>         0.0040
5    C5      -26.6820  -13.3557   27.9468  C.ar  1 <0>         0.0595
6    C6      -29.8648  -11.7703   26.6296  C.2   1 <0>        -0.0158
7    C7      -29.2672  -13.8927   26.9573  C.ar  1 <0>         0.0470
8    C8      -30.8949  -12.6361   26.2636  C.2   1 <0>         0.0343
9    C9      -25.3825  -13.0932   28.4469  C.2   1 <0>         0.3368
10   C10     -31.4916   -8.4141   25.9164  C.2   1 <0>         0.3223
11   C11     -29.9641  -10.3005   26.5571  C.3   1 <0>         0.0005
12   C12     -32.1954  -12.1517   25.7641  C.3   1 <0>         0.0374
13   C13     -31.4408   -9.8191   26.3748  C.3   1 <0>         0.1101
14   N1      -30.5237  -13.9132   26.4780  N.2   1 <0>        -0.3567
15   N2      -32.1710  -10.7076   25.4226  N.4   1 <0>        -0.2984
16   O1      -24.8160  -11.8733   28.3197  O.co2 1 <0>        -0.4771
17   O2      -32.3857   -8.0400   24.9718  O.co2 1 <0>        -0.4795
18   O3      -24.6428  -14.0482   29.0549  O.co2 1 <0>        -0.2451
19   O4      -30.7769   -7.4527   26.5480  O.co2 1 <0>        -0.2492
20   H1      -26.5697  -15.4762   28.1218  H     1 <0>         0.0626
21   H2      -28.7958  -15.9286   27.2664  H     1 <0>         0.0638
22   H3      -27.2218  -11.3141   27.6023  H     1 <0>         0.0632
23   H4      -29.5632   -9.8759   27.4826  H     1 <0>         0.0334
24   H5      -29.3438   -9.9638   25.7204  H     1 <0>         0.0334
25   H6      -32.4556  -12.7011   24.8588  H     1 <0>         0.0488
26   H7      -32.9657  -12.3376   26.5138  H     1 <0>         0.0488
27   H8      -31.9560   -9.8578   27.3394  H     1 <0>         0.0579
28   H9      -31.7185  -10.6047   24.5108  H     1 <0>         0.1231
29   H10     -33.1394  -10.3845   25.3424  H     1 <0>         0.0000
@<TRIPOS>BOND
     1    1    2 ar
     2    1    5 ar
     3    2    7 ar
     4    3    4 ar
     5    3    5 ar
     6    4    6 1
     7    4    7 ar
     8    5    9 1
     9    6    8 2
    10    6   11 1
    11    7   14 1
    12    8   12 1
    13    8   14 1
    14    9   16 1
    15    9   18 2
    16   10   13 1
    17   10   17 1
    18   10   19 2
    19   11   13 1
    20   12   15 1
    21   13   15 1
    22    1   20 1
    23    2   21 1
    24    3   22 1
    25   11   23 1
    26   11   24 1
    27   12   25 1
    28   12   26 1
    29   13   27 1
    30   15   28 1
    31   15   29 1
@<TRIPOS>PROPERTY_DATA
  Total_Score	| 9.3455
  Crash		| -0.5131
  Polar		| 7.6277

@<TRIPOS>MOLECULE
ligand_negative1_001
   29    31     0     0     0
SMALL
USER_CHARGES

@<TRIPOS>ATOM
1    C1      -27.1099  -14.7098   27.6793  C.ar  1 <0>        -0.0458
2    C2      -28.4202  -14.9865   27.2403  C.ar  1 <0>        -0.0370
3    C3      -27.4815  -12.3134   27.3616  C.ar  1 <0>        -0.0383
4    C4      -28.7887  -12.6014   26.9258  C.ar  1 <0>         0.0040
5    C5      -26.6224  -13.3731   27.7468  C.ar  1 <0>         0.0595
6    C6      -29.8424  -11.7923   26.5127  C.2   1 <0>        -0.0158
7    C7      -29.2475  -13.9181   26.8668  C.ar  1 <0>         0.0470
8    C8      -30.8929  -12.6548   26.2092  C.2   1 <0>         0.0343
9    C9      -25.2993  -13.1141   28.1753  C.2   1 <0>         0.3368
10   C10     -31.5100   -8.4258   25.9167  C.2   1 <0>         0.3223
11   C11     -29.9333  -10.3188   26.3964  C.3   1 <0>         0.0005
12   C12     -32.2132  -12.1739   25.7607  C.3   1 <0>         0.0374
13   C13     -31.4216   -9.8366   26.3363  C.3   1 <0>         0.1101
14   N1      -30.5209  -13.9307   26.4312  N.2   1 <0>        -0.3567
15   N2      -32.1918  -10.7269   25.4215  N.4   1 <0>        -0.2984
16   O1      -24.4684  -14.1006   28.5751  O.co2 1 <0>        -0.4771
17   O2      -30.7904   -7.4811   26.5692  O.co2 1 <0>        -0.4795
18   O3      -24.8183  -11.8535   28.2659  O.co2 1 <0>        -0.2451
19   O4      -32.3740   -8.0157   24.9509  O.co2 1 <0>        -0.2492
20   H1      -26.5160  -15.4986   27.9400  H     1 <0>         0.0626
21   H2      -28.7631  -15.9500   27.1846  H     1 <0>         0.0638
22   H3      -27.1710  -11.3386   27.3929  H     1 <0>         0.0632
23   H4      -29.4395   -9.8622   27.2559  H     1 <0>         0.0334
24   H5      -29.3972  -10.0201   25.4905  H     1 <0>         0.0334
25   H6      -32.5135  -12.7305   24.8692  H     1 <0>         0.0488
26   H7      -32.9525  -12.3590   26.5436  H     1 <0>         0.0488
27   H8      -31.8577   -9.8993   27.3345  H     1 <0>         0.0579
28   H9      -31.7651  -10.6413   24.4951  H     1 <0>         0.1231
29   H10     -33.1636  -10.4027   25.3651  H     1 <0>         0.0000
@<TRIPOS>BOND
     1    1    2 ar
     2    1    5 ar
     3    2    7 ar
     4    3    4 ar
     5    3    5 ar
     6    4    6 1
     7    4    7 ar
     8    5    9 1
     9    6    8 2
    10    6   11 1
    11    7   14 1
    12    8   12 1
    13    8   14 1
    14    9   16 1
    15    9   18 2
    16   10   13 1
    17   10   17 1
    18   10   19 2
    19   11   13 1
    20   12   15 1
    21   13   15 1
    22    1   20 1
    23    2   21 1
    24    3   22 1
    25   11   23 1
    26   11   24 1
    27   12   25 1
    28   12   26 1
    29   13   27 1
    30   15   28 1
    31   15   29 1
@<TRIPOS>PROPERTY_DATA
  Total_Score	| 9.2101
  Crash		| -0.5425
  Polar		| 7.6122

@<TRIPOS>MOLECULE
ligand_negative1_002
   29    31     0     0     0
SMALL
USER_CHARGES

@<TRIPOS>ATOM
1    C1      -27.1266  -14.6988   27.6152  C.ar  1 <0>        -0.0458
2    C2      -28.4411  -14.9649   27.1772  C.ar  1 <0>        -0.0370
3    C3      -27.5015  -12.2979   27.3536  C.ar  1 <0>        -0.0383
4    C4      -28.8086  -12.5797   26.9187  C.ar  1 <0>         0.0040
5    C5      -26.6385  -13.3668   27.7138  C.ar  1 <0>         0.0595
6    C6      -29.8638  -11.7661   26.5335  C.2   1 <0>        -0.0158
7    C7      -29.2759  -13.8908   26.8357  C.ar  1 <0>         0.0470
8    C8      -30.9228  -12.6199   26.2217  C.2   1 <0>         0.0343
9    C9      -25.3209  -13.1033   28.1705  C.2   1 <0>         0.3368
10   C10     -31.5219   -8.4037   25.9932  C.2   1 <0>         0.3223
11   C11     -29.9414  -10.2956   26.4411  C.3   1 <0>         0.0005
12   C12     -32.2453  -12.1234   25.7955  C.3   1 <0>         0.0374
13   C13     -31.4281   -9.8229   26.3963  C.3   1 <0>         0.1101
14   N1      -30.5546  -13.9002   26.4197  N.2   1 <0>        -0.3567
15   N2      -32.2265  -10.6741   25.4706  N.4   1 <0>        -0.2984
16   O1      -24.4723  -14.0975   28.5226  O.co2 1 <0>        -0.4771
17   O2      -32.3199   -8.0281   24.9649  O.co2 1 <0>        -0.4795
18   O3      -24.8418  -11.8415   28.2646  O.co2 1 <0>        -0.2451
19   O4      -30.6848   -7.4837   26.5286  O.co2 1 <0>        -0.2492
20   H1      -26.5329  -15.4937   27.8681  H     1 <0>         0.0626
21   H2      -28.7836  -15.9247   27.1191  H     1 <0>         0.0638
22   H3      -27.1969  -11.3233   27.4110  H     1 <0>         0.0632
23   H4      -29.4467   -9.8461   27.3078  H     1 <0>         0.0334
24   H5      -29.4067   -9.9886   25.5375  H     1 <0>         0.0334
25   H6      -32.5596  -12.6678   24.9042  H     1 <0>         0.0488
26   H7      -32.9680  -12.3111   26.5925  H     1 <0>         0.0488
27   H8      -31.8539   -9.9192   27.4004  H     1 <0>         0.0579
28   H9      -31.8323  -10.5652   24.5331  H     1 <0>         0.1231
29   H10     -33.1903  -10.3300   25.4530  H     1 <0>         0.0000
@<TRIPOS>BOND
     1    1    2 ar
     2    1    5 ar
     3    2    7 ar
     4    3    4 ar
     5    3    5 ar
     6    4    6 1
     7    4    7 ar
     8    5    9 1
     9    6    8 2
    10    6   11 1
    11    7   14 1
    12    8   12 1
    13    8   14 1
    14    9   16 1
    15    9   18 2
    16   10   13 1
    17   10   17 1
    18   10   19 2
    19   11   13 1
    20   12   15 1
    21   13   15 1
    22    1   20 1
    23    2   21 1
    24    3   22 1
    25   11   23 1
    26   11   24 1
    27   12   25 1
    28   12   26 1
    29   13   27 1
    30   15   28 1
    31   15   29 1
@<TRIPOS>PROPERTY_DATA
  Total_Score	| 9.1841
  Crash		| -0.5921
  Polar		| 7.5460

@<TRIPOS>MOLECULE
ligand_hydrophobic5_000
   36    38     0     0     0
SMALL
USER_CHARGES

@<TRIPOS>ATOM
1    C1      -27.9836  -15.6174   27.9124  C.ar  1 <0>        -0.0563
2    C2      -28.9469  -15.7072   26.8885  C.ar  1 <0>        -0.0375
3    C3      -28.4035  -13.2291   28.1468  C.ar  1 <0>        -0.0489
4    C4      -29.3580  -13.3176   27.1153  C.ar  1 <0>         0.0035
5    C5      -30.1734  -12.3791   26.4887  C.2   1 <0>        -0.0159
6    C6      -27.6872  -14.3864   28.5626  C.ar  1 <0>        -0.0441
7    C7      -29.6188  -14.5408   26.4934  C.ar  1 <0>         0.0470
8    C8      -30.9091  -13.0837   25.5351  C.2   1 <0>         0.0343
9    C9      -31.5808   -8.8635   25.8607  C.2   1 <0>         0.3223
10   C10     -30.3117  -10.9221   26.7105  C.3   1 <0>         0.0005
11   C11     -31.9109  -12.4442   24.6608  C.3   1 <0>         0.0374
12   C12     -31.0949  -10.2264   25.5450  C.3   1 <0>         0.1101
13   C13     -25.4194  -13.4531   29.2157  C.3   1 <0>        -0.0586
14   C14     -26.1984  -15.5915   30.3298  C.3   1 <0>        -0.0586
15   C15     -26.6709  -14.2624   29.6672  C.3   1 <0>        -0.0215
16   N1      -30.5416  -14.3798   25.5292  N.2   1 <0>        -0.3567
17   N2      -32.2456  -11.0656   25.1000  N.4   1 <0>        -0.2984
18   O1      -31.1038   -8.1773   26.9224  O.co2 1 <0>        -0.4795
19   O2      -32.3616   -8.1969   24.9787  O.co2 1 <0>        -0.2492
20   H1      -27.4997  -16.4787   28.1723  H     1 <0>         0.0621
21   H2      -29.1482  -16.6023   26.4372  H     1 <0>         0.0638
22   H3      -28.2387  -12.3236   28.5906  H     1 <0>         0.0627
23   H4      -30.8260  -10.7712   27.6634  H     1 <0>         0.0334
24   H5      -29.3154  -10.4753   26.7833  H     1 <0>         0.0334
25   H6      -31.5416  -12.4256   23.6351  H     1 <0>         0.0488
26   H7      -32.8296  -13.0317   24.6785  H     1 <0>         0.0488
27   H8      -30.4092  -10.1209   24.6989  H     1 <0>         0.0579
28   H9      -24.9005  -13.9712   28.4045  H     1 <0>         0.0235
29   H10     -24.7239  -13.3340   30.0478  H     1 <0>         0.0235
30   H11     -25.7011  -12.4567   28.8719  H     1 <0>         0.0235
31   H12     -25.6359  -16.2029   29.6148  H     1 <0>         0.0235
32   H13     -27.0593  -16.1669   30.6826  H     1 <0>         0.0235
33   H14     -25.5559  -15.3865   31.1808  H     1 <0>         0.0235
34   H15     -27.1482  -13.6938   30.4714  H     1 <0>         0.0343
35   H16     -32.7117  -10.6012   24.3162  H     1 <0>         0.1231
36   H17     -32.9068  -11.1303   25.8767  H     1 <0>         0.0000
@<TRIPOS>BOND
     1    1    2 ar
     2    1    6 ar
     3    2    7 ar
     4    3    4 ar
     5    3    6 ar
     6    4    5 1
     7    4    7 ar
     8    5    8 2
     9    5   10 1
    10    6   15 1
    11    7   16 1
    12    8   11 1
    13    8   16 1
    14    9   12 1
    15    9   18 1
    16    9   19 2
    17   10   12 1
    18   11   17 1
    19   12   17 1
    20   13   15 1
    21   14   15 1
    22    1   20 1
    23    2   21 1
    24    3   22 1
    25   10   23 1
    26   10   24 1
    27   11   25 1
    28   11   26 1
    29   12   27 1
    30   13   28 1
    31   13   29 1
    32   13   30 1
    33   14   31 1
    34   14   32 1
    35   14   33 1
    36   15   34 1
    37   17   35 1
    38   17   36 1
@<TRIPOS>PROPERTY_DATA
  Total_Score	| 7.8832
  Crash		| -0.9769
  Polar		| 3.9245

@<TRIPOS>MOLECULE
ligand_hydrophobic5_001
   36    38     0     0     0
SMALL
USER_CHARGES

@<TRIPOS>ATOM
1    C1      -28.2654  -15.8876   27.3212  C.ar  1 <0>        -0.0563
2    C2      -29.2829  -15.8974   26.3485  C.ar  1 <0>        -0.0375
3    C3      -28.6414  -13.5147   27.7372  C.ar  1 <0>        -0.0489
4    C4      -29.6349  -13.5247   26.7487  C.ar  1 <0>         0.0035
5    C5      -30.4387  -12.5304   26.2215  C.2   1 <0>        -0.0159
6    C6      -27.9222  -14.7029   28.0391  C.ar  1 <0>        -0.0441
7    C7      -29.9526  -14.7000   26.0604  C.ar  1 <0>         0.0470
8    C8      -31.2406  -13.1467   25.2626  C.2   1 <0>         0.0343
9    C9      -31.7311   -8.9405   25.9278  C.2   1 <0>         0.3223
10   C10     -30.4963  -11.0860   26.5356  C.3   1 <0>         0.0005
11   C11     -32.2488  -12.4125   24.4865  C.3   1 <0>         0.0374
12   C12     -31.3237  -10.2887   25.4739  C.3   1 <0>         0.1101
13   C13     -27.2643  -15.5284   30.3276  C.3   1 <0>        -0.0586
14   C14     -26.1495  -13.4188   29.4551  C.3   1 <0>        -0.0586
15   C15     -26.8099  -14.7713   29.0497  C.3   1 <0>        -0.0215
16   N1      -30.8984  -14.4469   25.1410  N.2   1 <0>        -0.3567
17   N2      -32.5243  -11.0611   25.0419  N.4   1 <0>        -0.2984
18   O1      -32.3694   -8.1261   25.0617  O.co2 1 <0>        -0.4795
19   O2      -31.2287   -8.3798   27.0567  O.co2 1 <0>        -0.2492
20   H1      -27.7646  -16.7587   27.5020  H     1 <0>         0.0621
21   H2      -29.5229  -16.7583   25.8489  H     1 <0>         0.0638
22   H3      -28.4479  -12.6324   28.2121  H     1 <0>         0.0627
23   H4      -30.9371  -10.9780   27.5303  H     1 <0>         0.0334
24   H5      -29.4800  -10.6822   26.5667  H     1 <0>         0.0334
25   H6      -31.9036  -12.3237   23.4551  H     1 <0>         0.0488
26   H7      -33.1861  -12.9713   24.5021  H     1 <0>         0.0488
27   H8      -30.6905  -10.1350   24.5979  H     1 <0>         0.0579
28   H9      -28.0787  -14.9942   30.8209  H     1 <0>         0.0235
29   H10     -26.4355  -15.6189   31.0300  H     1 <0>         0.0235
30   H11     -27.6068  -16.5379   30.0897  H     1 <0>         0.0235
31   H12     -26.8505  -12.7963   30.0166  H     1 <0>         0.0235
32   H13     -25.8305  -12.8780   28.5628  H     1 <0>         0.0235
33   H14     -25.2737  -13.5946   30.0761  H     1 <0>         0.0235
34   H15     -26.0048  -15.3560   28.5929  H     1 <0>         0.0343
35   H16     -33.0339  -10.5429   24.3213  H     1 <0>         0.1231
36   H17     -33.1375  -11.1693   25.8566  H     1 <0>         0.0000
@<TRIPOS>BOND
     1    1    2 ar
     2    1    6 ar
     3    2    7 ar
     4    3    4 ar
     5    3    6 ar
     6    4    5 1
     7    4    7 ar
     8    5    8 2
     9    5   10 1
    10    6   15 1
    11    7   16 1
    12    8   11 1
    13    8   16 1
    14    9   12 1
    15    9   18 1
    16    9   19 2
    17   10   12 1
    18   11   17 1
    19   12   17 1
    20   13   15 1
    21   14   15 1
    22    1   20 1
    23    2   21 1
    24    3   22 1
    25   10   23 1
    26   10   24 1
    27   11   25 1
    28   11   26 1
    29   12   27 1
    30   13   28 1
    31   13   29 1
    32   13   30 1
    33   14   31 1
    34   14   32 1
    35   14   33 1
    36   15   34 1
    37   17   35 1
    38   17   36 1
@<TRIPOS>PROPERTY_DATA
  Total_Score	| 7.8783
  Crash		| -1.1969
  Polar		| 3.9531

@<TRIPOS>MOLECULE
ligand_hydrophobic5_002
   36    38     0     0     0
SMALL
USER_CHARGES

@<TRIPOS>ATOM
1    C1      -28.2003  -15.8931   27.3765  C.ar  1 <0>        -0.0563
2    C2      -29.2137  -15.9172   26.3936  C.ar  1 <0>        -0.0375
3    C3      -28.5540  -13.5004   27.7216  C.ar  1 <0>        -0.0489
4    C4      -29.5548  -13.5395   26.7347  C.ar  1 <0>         0.0035
5    C5      -30.3719  -12.5534   26.1991  C.2   1 <0>        -0.0159
6    C6      -27.8418  -14.6867   28.0451  C.ar  1 <0>        -0.0441
7    C7      -29.8777  -14.7225   26.0719  C.ar  1 <0>         0.0470
8    C8      -31.1764  -13.1795   25.2481  C.2   1 <0>         0.0343
9    C9      -31.6927   -8.9782   25.9346  C.2   1 <0>         0.3223
10   C10     -30.4388  -11.1153   26.5260  C.3   1 <0>         0.0005
11   C11     -32.2045  -12.4472   24.4808  C.3   1 <0>         0.0374
12   C12     -31.2809  -10.3228   25.4738  C.3   1 <0>         0.1101
13   C13     -27.2084  -15.4450   30.3538  C.3   1 <0>        -0.0586
14   C14     -26.1055  -13.3442   29.4346  C.3   1 <0>        -0.0586
15   C15     -26.7398  -14.7174   29.0645  C.3   1 <0>        -0.0215
16   N1      -30.8440  -14.4873   25.1617  N.2   1 <0>        -0.3567
17   N2      -32.4804  -11.1017   25.0546  N.4   1 <0>        -0.2984
18   O1      -31.2083   -8.4414   27.0781  O.co2 1 <0>        -0.4795
19   O2      -32.3515   -8.1544   25.0869  O.co2 1 <0>        -0.2492
20   H1      -27.7121  -16.7667   27.5955  H     1 <0>         0.0621
21   H2      -29.4583  -16.7886   25.9215  H     1 <0>         0.0638
22   H3      -28.3543  -12.6126   28.1903  H     1 <0>         0.0627
23   H4      -30.8731  -11.0258   27.5248  H     1 <0>         0.0334
24   H5      -29.4246  -10.7062   26.5497  H     1 <0>         0.0334
25   H6      -31.8855  -12.3500   23.4418  H     1 <0>         0.0488
26   H7      -33.1364  -13.0126   24.4938  H     1 <0>         0.0488
27   H8      -30.6530  -10.1723   24.5920  H     1 <0>         0.0579
28   H9      -28.0317  -14.9035   30.8234  H     1 <0>         0.0235
29   H10     -26.3855  -15.5168   31.0672  H     1 <0>         0.0235
30   H11     -27.5446  -16.4580   30.1249  H     1 <0>         0.0235
31   H12     -26.8119  -12.7207   29.9885  H     1 <0>         0.0235
32   H13     -25.8020  -12.8105   28.5315  H     1 <0>         0.0235
33   H14     -25.2173  -13.4930   30.0505  H     1 <0>         0.0235
34   H15     -25.9185  -15.3041   28.6390  H     1 <0>         0.0343
35   H16     -33.0040  -10.5703   24.3548  H     1 <0>         0.1231
36   H17     -33.0780  -11.2282   25.8746  H     1 <0>         0.0000
@<TRIPOS>BOND
     1    1    2 ar
     2    1    6 ar
     3    2    7 ar
     4    3    4 ar
     5    3    6 ar
     6    4    5 1
     7    4    7 ar
     8    5    8 2
     9    5   10 1
    10    6   15 1
    11    7   16 1
    12    8   11 1
    13    8   16 1
    14    9   12 1
    15    9   18 1
    16    9   19 2
    17   10   12 1
    18   11   17 1
    19   12   17 1
    20   13   15 1
    21   14   15 1
    22    1   20 1
    23    2   21 1
    24    3   22 1
    25   10   23 1
    26   10   24 1
    27   11   25 1
    28   11   26 1
    29   12   27 1
    30   13   28 1
    31   13   29 1
    32   13   30 1
    33   14   31 1
    34   14   32 1
    35   14   33 1
    36   15   34 1
    37   17   35 1
    38   17   36 1
@<TRIPOS>PROPERTY_DATA
  Total_Score	| 7.8480
  Crash		| -1.2207
  Polar		| 3.8959

@<TRIPOS>MOLECULE
ligand_negative10_000
   47    50     0     0     0
SMALL
USER_CHARGES

@<TRIPOS>ATOM
1    C1      -29.4070  -16.0750   26.3249  C.ar  1 <0>        -0.0563
2    C2      -30.5613  -15.8501   25.5542  C.ar  1 <0>        -0.0375
3    C3      -29.3298  -13.7160   26.9430  C.ar  1 <0>        -0.0489
4    C4      -30.4489  -13.4995   26.1259  C.ar  1 <0>         0.0035
5    C5      -28.7434  -15.0096   27.0002  C.ar  1 <0>        -0.0436
6    C6      -31.1471  -12.3827   25.8018  C.2   1 <0>        -0.0159
7    C7      -31.0528  -14.5368   25.4330  C.ar  1 <0>         0.0470
8    C8      -32.1328  -12.7835   24.9732  C.cat 1 <0>         0.0343
9    C9      -24.5581  -16.3688   31.2392  C.2   1 <0>         0.3078
10   C10     -31.9250   -8.6661   26.0213  C.2   1 <0>         0.3223
11   C11     -30.9100  -11.0120   26.2211  C.3   1 <0>         0.0005
12   C12     -33.1758  -11.8847   24.5130  C.3   1 <0>         0.0374
13   C13     -25.1206  -14.3593   28.5046  C.3   1 <0>        -0.0518
14   C14     -26.4335  -14.1358   27.7146  C.3   1 <0>        -0.0462
15   C15     -27.8633  -15.7987   29.2075  C.3   1 <0>        -0.0455
16   C16     -25.3229  -14.2803   30.0418  C.3   1 <0>        -0.0401
17   C17     -26.7047  -16.5333   29.9314  C.3   1 <0>        -0.0396
18   C18     -27.4854  -15.2948   27.7771  C.3   1 <0>        -0.0158
19   C19     -25.7423  -15.6162   30.7506  C.3   1 <0>         0.0563
20   C20     -31.8180  -10.0110   25.4365  C.3   1 <0>         0.1101
21   N1      -32.0404  -14.0537   24.7215  N.2   1 <0>        -0.3567
22   N2      -33.1665  -10.6113   25.2920  N.3   1 <0>        -0.2984
23   O1      -23.7307  -15.7805   32.1268  O.co2 1 <0>        -0.4804
24   O2      -32.5190   -7.6980   25.2926  O.co2 1 <0>        -0.4795
25   O3      -24.0898  -17.4594   30.5951  O.co2 1 <0>        -0.2507
26   O4      -31.2243   -8.3019   27.1202  O.co2 1 <0>        -0.2492
27   H1      -29.0469  -17.0267   26.3931  H     1 <0>         0.0621
28   H2      -31.0260  -16.6225   25.0774  H     1 <0>         0.0638
29   H3      -28.9513  -12.9263   27.4611  H     1 <0>         0.0627
30   H4      -31.1141  -10.9423   27.2967  H     1 <0>         0.0334
31   H5      -29.8653  -10.7439   26.0519  H     1 <0>         0.0334
32   H6      -33.0234  -11.6521   23.4581  H     1 <0>         0.0488
33   H7      -34.1537  -12.3597   24.6277  H     1 <0>         0.0488
34   H8      -24.6583  -15.3090   28.2206  H     1 <0>         0.0266
35   H9      -24.4231  -13.5680   28.2189  H     1 <0>         0.0266
36   H10     -26.8547  -13.1964   28.0770  H     1 <0>         0.0271
37   H11     -26.1719  -13.9737   26.6645  H     1 <0>         0.0271
38   H12     -28.6865  -16.5147   29.1191  H     1 <0>         0.0271
39   H13     -28.2265  -14.9664   29.8187  H     1 <0>         0.0271
40   H14     -24.3992  -13.8993   30.4901  H     1 <0>         0.0273
41   H15     -26.0797  -13.5231   30.2592  H     1 <0>         0.0273
42   H16     -27.1383  -17.2675   30.6155  H     1 <0>         0.0273
43   H17     -26.1415  -17.1112   29.1929  H     1 <0>         0.0273
44   H18     -26.9937  -16.1274   27.2699  H     1 <0>         0.0349
45   H19     -26.2986  -15.3299   31.6492  H     1 <0>         0.0413
46   H20     -31.3936   -9.8792   24.4374  H     1 <0>         0.0579
47   H21     -33.8496   -9.9492   24.9226  H     1 <0>         0.1231
@<TRIPOS>BOND
     1    1    2 ar
     2    1    5 ar
     3    2    7 ar
     4    3    4 ar
     5    3    5 ar
     6    4    6 2
     7    4    7 ar
     8    5   18 1
     9    6    8 1
    10    6   11 1
    11    7   21 2
    12    8   12 1
    13    8   21 1
    14    9   19 1
    15    9   23 1
    16    9   25 2
    17   10   20 1
    18   10   24 1
    19   10   26 2
    20   11   20 1
    21   12   22 1
    22   13   14 1
    23   13   16 1
    24   14   18 1
    25   15   17 1
    26   15   18 1
    27   16   19 1
    28   17   19 1
    29   20   22 1
    30    1   27 1
    31    2   28 1
    32    3   29 1
    33   11   30 1
    34   11   31 1
    35   12   32 1
    36   12   33 1
    37   13   34 1
    38   13   35 1
    39   14   36 1
    40   14   37 1
    41   15   38 1
    42   15   39 1
    43   16   40 1
    44   16   41 1
    45   17   42 1
    46   17   43 1
    47   18   44 1
    48   19   45 1
    49   20   46 1
    50   22   47 1
@<TRIPOS>PROPERTY_DATA
  Total_Score	| 8.3442
  Crash		| -4.5016
  Polar		| 3.9137

@<TRIPOS>MOLECULE
ligand_negative10_001
   47    50     0     0     0
SMALL
USER_CHARGES

@<TRIPOS>ATOM
1    C1      -26.8109  -10.9341   27.7302  C.ar  1 <0>        -0.0563
2    C2      -27.5439   -9.7564   27.4616  C.ar  1 <0>        -0.0375
3    C3      -28.7510  -12.2988   27.1973  C.ar  1 <0>        -0.0489
4    C4      -29.4317  -11.1186   26.8300  C.ar  1 <0>         0.0035
5    C5      -27.4014  -12.2449   27.6738  C.ar  1 <0>        -0.0436
6    C6      -30.6570  -10.8811   26.2890  C.2   1 <0>        -0.0159
7    C7      -28.8592   -9.8646   26.9941  C.ar  1 <0>         0.0470
8    C8      -30.7618   -9.5413   26.1605  C.cat 1 <0>         0.0343
9    C9      -25.3117  -17.7798   29.7085  C.2   1 <0>         0.3078
10   C10     -34.1770  -11.9432   25.4894  C.2   1 <0>         0.3223
11   C11     -31.6886  -11.8050   25.8317  C.3   1 <0>         0.0005
12   C12     -31.9788   -8.8673   25.7320  C.3   1 <0>         0.0374
13   C13     -24.9435  -14.3233   30.0615  C.3   1 <0>        -0.0518
14   C14     -25.8538  -13.2118   29.4473  C.3   1 <0>        -0.0462
15   C15     -27.3080  -14.8536   28.0555  C.3   1 <0>        -0.0455
16   C16     -25.7334  -15.4916   30.7068  C.3   1 <0>        -0.0401
17   C17     -26.4222  -16.1276   28.2333  C.3   1 <0>        -0.0396
18   C18     -26.5627  -13.4608   28.0613  C.3   1 <0>        -0.0158
19   C19     -26.2137  -16.6026   29.7102  C.3   1 <0>         0.0563
20   C20     -33.0748  -11.1106   25.9846  C.3   1 <0>         0.1101
21   N1      -29.7105   -8.9442   26.6153  N.2   1 <0>        -0.3567
22   N2      -33.0299   -9.8074   25.2727  N.3   1 <0>        -0.2984
23   O1      -23.9720  -17.6292   29.8902  O.co2 1 <0>        -0.4804
24   O2      -35.2290  -12.2503   26.2902  O.co2 1 <0>        -0.4795
25   O3      -25.8131  -19.0446   29.6830  O.co2 1 <0>        -0.2507
26   O4      -34.2201  -12.3038   24.1839  O.co2 1 <0>        -0.2492
27   H1      -25.8266  -10.7980   28.0026  H     1 <0>         0.0621
28   H2      -27.1196   -8.8233   27.5494  H     1 <0>         0.0638
29   H3      -29.2445  -13.1913   27.0968  H     1 <0>         0.0627
30   H4      -31.5010  -12.0374   24.7747  H     1 <0>         0.0334
31   H5      -31.6666  -12.7377   26.4062  H     1 <0>         0.0334
32   H6      -32.3611   -8.2837   26.5671  H     1 <0>         0.0488
33   H7      -31.7273   -8.1814   24.9218  H     1 <0>         0.0488
34   H8      -24.2484  -14.6859   29.2955  H     1 <0>         0.0266
35   H9      -24.3310  -13.8710   30.8517  H     1 <0>         0.0266
36   H10     -26.6178  -12.9175   30.1844  H     1 <0>         0.0271
37   H11     -25.1711  -12.3617   29.3457  H     1 <0>         0.0271
38   H12     -27.7933  -14.9666   27.0631  H     1 <0>         0.0271
39   H13     -28.1092  -14.8342   28.8155  H     1 <0>         0.0271
40   H14     -25.1026  -15.9451   31.4806  H     1 <0>         0.0273
41   H15     -26.6053  -15.0795   31.2236  H     1 <0>         0.0273
42   H16     -26.9212  -16.9459   27.6920  H     1 <0>         0.0273
43   H17     -25.4571  -15.9589   27.7315  H     1 <0>         0.0273
44   H18     -25.7759  -13.5210   27.3045  H     1 <0>         0.0349
45   H19     -27.1925  -16.9435   30.0744  H     1 <0>         0.0413
46   H20     -33.2415  -10.9105   27.0425  H     1 <0>         0.0579
47   H21     -33.9431   -9.3706   25.2521  H     1 <0>         0.1231
@<TRIPOS>BOND
     1    1    2 ar
     2    1    5 ar
     3    2    7 ar
     4    3    4 ar
     5    3    5 ar
     6    4    6 2
     7    4    7 ar
     8    5   18 1
     9    6    8 1
    10    6   11 1
    11    7   21 2
    12    8   12 1
    13    8   21 1
    14    9   19 1
    15    9   23 1
    16    9   25 2
    17   10   20 1
    18   10   24 1
    19   10   26 2
    20   11   20 1
    21   12   22 1
    22   13   14 1
    23   13   16 1
    24   14   18 1
    25   15   17 1
    26   15   18 1
    27   16   19 1
    28   17   19 1
    29   20   22 1
    30    1   27 1
    31    2   28 1
    32    3   29 1
    33   11   30 1
    34   11   31 1
    35   12   32 1
    36   12   33 1
    37   13   34 1
    38   13   35 1
    39   14   36 1
    40   14   37 1
    41   15   38 1
    42   15   39 1
    43   16   40 1
    44   16   41 1
    45   17   42 1
    46   17   43 1
    47   18   44 1
    48   19   45 1
    49   20   46 1
    50   22   47 1
@<TRIPOS>PROPERTY_DATA
  Total_Score	| 8.2404
  Crash		| -3.9744
  Polar		| 3.8440

@<TRIPOS>MOLECULE
ligand_negative10_002
   47    50     0     0     0
SMALL
USER_CHARGES

@<TRIPOS>ATOM
1    C1      -29.4279  -16.0497   26.3430  C.ar  1 <0>        -0.0563
2    C2      -30.5722  -15.8312   25.5523  C.ar  1 <0>        -0.0375
3    C3      -29.3946  -13.7015   27.0054  C.ar  1 <0>        -0.0489
4    C4      -30.4963  -13.4892   26.1633  C.ar  1 <0>         0.0035
5    C5      -28.7920  -14.9877   27.0453  C.ar  1 <0>        -0.0436
6    C6      -31.1869  -12.3744   25.8312  C.2   1 <0>        -0.0159
7    C7      -31.0755  -14.5281   25.4405  C.ar  1 <0>         0.0470
8    C8      -32.1586  -12.7744   24.9808  C.cat 1 <0>         0.0343
9    C9      -24.5651  -16.5078   31.1533  C.2   1 <0>         0.3078
10   C10     -31.9285   -8.6402   25.9878  C.2   1 <0>         0.3223
11   C11     -30.9632  -11.0006   26.2558  C.3   1 <0>         0.0005
12   C12     -33.1838  -11.8700   24.4968  C.3   1 <0>         0.0374
13   C13     -25.1491  -14.3740   28.5409  C.3   1 <0>        -0.0518
14   C14     -26.4898  -14.1123   27.7995  C.3   1 <0>        -0.0462
15   C15     -27.9109  -15.8118   29.2429  C.3   1 <0>        -0.0455
16   C16     -25.3178  -14.3625   30.0851  C.3   1 <0>        -0.0401
17   C17     -26.7501  -16.5851   29.9213  C.3   1 <0>        -0.0396
18   C18     -27.5405  -15.2759   27.8234  C.3   1 <0>        -0.0158
19   C19     -25.7482  -15.7153   30.7401  C.3   1 <0>         0.0563
20   C20     -31.8307  -10.0001   25.4309  C.3   1 <0>         0.1101
21   N1      -32.0487  -14.0382   24.7109  N.2   1 <0>        -0.3567
22   N2      -33.1813  -10.5950   25.2636  N.3   1 <0>        -0.2984
23   O1      -24.0226  -17.4391   30.3382  O.co2 1 <0>        -0.4804
24   O2      -31.2112   -8.2497   27.0648  O.co2 1 <0>        -0.4795
25   O3      -23.7450  -15.9978   32.0946  O.co2 1 <0>        -0.2507
26   O4      -32.5409   -7.6904   25.2516  O.co2 1 <0>        -0.2492
27   H1      -29.0504  -16.9992   26.3955  H     1 <0>         0.0621
28   H2      -31.0166  -16.6087   25.0626  H     1 <0>         0.0638
29   H3      -29.0242  -12.9140   27.5354  H     1 <0>         0.0627
30   H4      -31.2138  -10.9323   27.3174  H     1 <0>         0.0334
31   H5      -29.9072  -10.7464   26.1288  H     1 <0>         0.0334
32   H6      -32.9958  -11.6570   23.4434  H     1 <0>         0.0488
33   H7      -34.1641  -12.3407   24.5934  H     1 <0>         0.0488
34   H8      -24.6979  -15.3124   28.2082  H     1 <0>         0.0266
35   H9      -24.4564  -13.5696   28.2708  H     1 <0>         0.0266
36   H10     -26.9232  -13.2034   28.2251  H     1 <0>         0.0271
37   H11     -26.2504  -13.8867   26.7538  H     1 <0>         0.0271
38   H12     -28.7408  -16.5162   29.1464  H     1 <0>         0.0271
39   H13     -28.2528  -14.9949   29.8793  H     1 <0>         0.0271
40   H14     -24.3842  -14.0037   30.5326  H     1 <0>         0.0273
41   H15     -26.0606  -13.6000   30.3445  H     1 <0>         0.0273
42   H16     -27.1801  -17.3237   30.5978  H     1 <0>         0.0273
43   H17     -26.2207  -17.1559   29.1545  H     1 <0>         0.0273
44   H18     -27.0377  -16.0927   27.2904  H     1 <0>         0.0349
45   H19     -26.2693  -15.4466   31.6638  H     1 <0>         0.0413
46   H20     -31.3803   -9.8863   24.4426  H     1 <0>         0.0579
47   H21     -33.8676   -9.9431   24.8856  H     1 <0>         0.1231
@<TRIPOS>BOND
     1    1    2 ar
     2    1    5 ar
     3    2    7 ar
     4    3    4 ar
     5    3    5 ar
     6    4    6 2
     7    4    7 ar
     8    5   18 1
     9    6    8 1
    10    6   11 1
    11    7   21 2
    12    8   12 1
    13    8   21 1
    14    9   19 1
    15    9   23 1
    16    9   25 2
    17   10   20 1
    18   10   24 1
    19   10   26 2
    20   11   20 1
    21   12   22 1
    22   13   14 1
    23   13   16 1
    24   14   18 1
    25   15   17 1
    26   15   18 1
    27   16   19 1
    28   17   19 1
    29   20   22 1
    30    1   27 1
    31    2   28 1
    32    3   29 1
    33   11   30 1
    34   11   31 1
    35   12   32 1
    36   12   33 1
    37   13   34 1
    38   13   35 1
    39   14   36 1
    40   14   37 1
    41   15   38 1
    42   15   39 1
    43   16   40 1
    44   16   41 1
    45   17   42 1
    46   17   43 1
    47   18   44 1
    48   19   45 1
    49   20   46 1
    50   22   47 1
@<TRIPOS>PROPERTY_DATA
  Total_Score	| 8.1186
  Crash		| -4.7257
  Polar		| 3.9225

@<TRIPOS>MOLECULE
ligand_hydrophobic10_000
   31    33     0     0     0
SMALL
USER_CHARGES

@<TRIPOS>ATOM
1    C1      -27.2900  -14.6316   27.9897  C.ar  1 <0>        -0.0526
2    C2      -28.5447  -14.9250   27.3950  C.ar  1 <0>        -0.0372
3    C3      -27.7743  -12.2463   27.9131  C.ar  1 <0>        -0.0452
4    C4      -28.9958  -12.5395   27.2948  C.ar  1 <0>         0.0038
5    C5      -26.8735  -13.2969   28.2365  C.ar  1 <0>        -0.0249
6    C6      -30.0271  -11.7324   26.8191  C.2   1 <0>        -0.0158
7    C7      -29.3826  -13.8572   27.0369  C.ar  1 <0>         0.0470
8    C8      -31.0004  -12.5914   26.3090  C.2   1 <0>         0.0343
9    C9      -24.4473  -13.3550   28.3212  C.2   1 <0>        -0.0981
10   C10     -25.6518  -13.0006   28.8288  C.2   1 <0>        -0.0617
11   C11     -31.5827   -8.3834   25.9625  C.2   1 <0>         0.3223
12   C12     -30.1402  -10.2606   26.7859  C.3   1 <0>         0.0005
13   C13     -32.2474  -12.1077   25.6864  C.3   1 <0>         0.0374
14   C14     -31.5838   -9.7878   26.4174  C.3   1 <0>         0.1101
15   N1      -30.5939  -13.8654   26.4461  N.2   1 <0>        -0.3567
16   N2      -32.1890  -10.6598   25.3695  N.4   1 <0>        -0.2984
17   O1      -32.4457   -7.9374   25.0182  O.co2 1 <0>        -0.4795
18   O2      -30.7853   -7.4856   26.5920  O.co2 1 <0>        -0.2492
19   H1      -26.6927  -15.4277   28.2421  H     1 <0>         0.0624
20   H2      -28.8149  -15.8938   27.1945  H     1 <0>         0.0638
21   H3      -27.5145  -11.2633   28.0483  H     1 <0>         0.0630
22   H4      -23.6193  -13.0606   28.7628  H     1 <0>         0.0535
23   H5      -24.3702  -13.9182   27.4965  H     1 <0>         0.0535
24   H6      -25.6256  -12.3669   29.5991  H     1 <0>         0.0618
25   H7      -29.8725   -9.8607   27.7637  H     1 <0>         0.0334
26   H8      -29.4130   -9.8885   26.0530  H     1 <0>         0.0334
27   H9      -32.4390  -12.6528   24.7531  H     1 <0>         0.0488
28   H10     -33.0817  -12.2813   26.3683  H     1 <0>         0.0488
29   H11     -32.2049   -9.8504   27.3056  H     1 <0>         0.0579
30   H12     -31.6343  -10.5498   24.5110  H     1 <0>         0.1231
31   H13     -33.1410  -10.3411   25.1831  H     1 <0>         0.0000
@<TRIPOS>BOND
     1    1    2 ar
     2    1    5 ar
     3    2    7 ar
     4    3    4 ar
     5    3    5 ar
     6    4    6 1
     7    4    7 ar
     8    5   10 1
     9    6    8 2
    10    6   12 1
    11    7   15 1
    12    8   13 1
    13    8   15 1
    14    9   10 2
    15   11   14 1
    16   11   17 1
    17   11   18 2
    18   12   14 1
    19   13   16 1
    20   14   16 1
    21    1   19 1
    22    2   20 1
    23    3   21 1
    24    9   22 1
    25    9   23 1
    26   10   24 1
    27   12   25 1
    28   12   26 1
    29   13   27 1
    30   13   28 1
    31   14   29 1
    32   16   30 1
    33   16   31 1
@<TRIPOS>PROPERTY_DATA
  Total_Score	| 9.2691
  Crash		| -0.5124
  Polar		| 6.6325

@<TRIPOS>MOLECULE
ligand_hydrophobic10_001
   31    33     0     0     0
SMALL
USER_CHARGES

@<TRIPOS>ATOM
1    C1      -27.1822  -14.5732   27.9907  C.ar  1 <0>        -0.0526
2    C2      -28.4322  -14.8768   27.4213  C.ar  1 <0>        -0.0372
3    C3      -27.6882  -12.1868   27.9100  C.ar  1 <0>        -0.0452
4    C4      -28.9198  -12.4956   27.3139  C.ar  1 <0>         0.0038
5    C5      -26.7803  -13.2257   28.2289  C.ar  1 <0>        -0.0249
6    C6      -29.9728  -11.7175   26.8360  C.2   1 <0>        -0.0158
7    C7      -29.2891  -13.8188   27.0687  C.ar  1 <0>         0.0470
8    C8      -30.9255  -12.5983   26.3239  C.2   1 <0>         0.0343
9    C9      -24.3823  -13.5006   28.4788  C.2   1 <0>        -0.0981
10   C10     -25.5577  -12.8975   28.7884  C.2   1 <0>        -0.0617
11   C11     -31.5960   -8.3972   25.9800  C.2   1 <0>         0.3223
12   C12     -30.1018  -10.2451   26.7720  C.3   1 <0>         0.0005
13   C13     -32.1850  -12.1414   25.7085  C.3   1 <0>         0.0374
14   C14     -31.5643   -9.8062   26.4222  C.3   1 <0>         0.1101
15   N1      -30.5009  -13.8627   26.4847  N.2   1 <0>        -0.3567
16   N2      -32.1573  -10.6932   25.3866  N.4   1 <0>        -0.2984
17   O1      -30.7943   -7.4778   26.5679  O.co2 1 <0>        -0.4795
18   O2      -32.4611   -7.9753   25.0258  O.co2 1 <0>        -0.2492
19   H1      -26.5619  -15.3550   28.2325  H     1 <0>         0.0624
20   H2      -28.7062  -15.8439   27.2338  H     1 <0>         0.0638
21   H3      -27.4348  -11.2026   28.0555  H     1 <0>         0.0630
22   H4      -23.5442  -13.1775   28.8718  H     1 <0>         0.0535
23   H5      -24.3376  -14.2384   27.8069  H     1 <0>         0.0535
24   H6      -25.4936  -12.0976   29.3835  H     1 <0>         0.0618
25   H7      -29.8094   -9.8324   27.7410  H     1 <0>         0.0334
26   H8      -29.3947   -9.8959   26.0154  H     1 <0>         0.0334
27   H9      -32.3603  -12.6825   24.7727  H     1 <0>         0.0488
28   H10     -33.0158  -12.3525   26.3857  H     1 <0>         0.0488
29   H11     -32.1709   -9.8738   27.3308  H     1 <0>         0.0579
30   H12     -31.6055  -10.5740   24.5375  H     1 <0>         0.1231
31   H13     -33.1125  -10.3848   25.2012  H     1 <0>         0.0000
@<TRIPOS>BOND
     1    1    2 ar
     2    1    5 ar
     3    2    7 ar
     4    3    4 ar
     5    3    5 ar
     6    4    6 1
     7    4    7 ar
     8    5   10 1
     9    6    8 2
    10    6   12 1
    11    7   15 1
    12    8   13 1
    13    8   15 1
    14    9   10 2
    15   11   14 1
    16   11   17 1
    17   11   18 2
    18   12   14 1
    19   13   16 1
    20   14   16 1
    21    1   19 1
    22    2   20 1
    23    3   21 1
    24    9   22 1
    25    9   23 1
    26   10   24 1
    27   12   25 1
    28   12   26 1
    29   13   27 1
    30   13   28 1
    31   14   29 1
    32   16   30 1
    33   16   31 1
@<TRIPOS>PROPERTY_DATA
  Total_Score	| 9.2424
  Crash		| -0.6106
  Polar		| 6.6194

@<TRIPOS>MOLECULE
ligand_hydrophobic10_002
   31    33     0     0     0
SMALL
USER_CHARGES

@<TRIPOS>ATOM
1    C1      -27.1826  -14.7596   27.9059  C.ar  1 <0>        -0.0526
2    C2      -28.4321  -15.0124   27.3117  C.ar  1 <0>        -0.0372
3    C3      -27.5457  -12.3519   27.6904  C.ar  1 <0>        -0.0452
4    C4      -28.8095  -12.6107   27.1241  C.ar  1 <0>         0.0038
5    C5      -26.7326  -13.4345   28.1366  C.ar  1 <0>        -0.0249
6    C6      -29.8582  -11.7868   26.7038  C.2   1 <0>        -0.0158
7    C7      -29.2422  -13.9234   26.9445  C.ar  1 <0>         0.0470
8    C8      -30.8591  -12.6475   26.2626  C.2   1 <0>         0.0343
9    C9      -25.0073  -13.8689   29.8148  C.2   1 <0>        -0.0981
10   C10     -25.5223  -13.1442   28.7885  C.2   1 <0>        -0.0617
11   C11     -31.5163   -8.4270   25.8912  C.2   1 <0>         0.3223
12   C12     -29.9965  -10.2971   26.6946  C.3   1 <0>         0.0005
13   C13     -32.1470  -12.1715   25.7461  C.3   1 <0>         0.0374
14   C14     -31.4597   -9.8316   26.3626  C.3   1 <0>         0.1101
15   N1      -30.4699  -13.9167   26.4113  N.2   1 <0>        -0.3567
16   N2      -32.1152  -10.7353   25.3745  N.4   1 <0>        -0.2984
17   O1      -30.8858   -7.4386   26.5800  O.co2 1 <0>        -0.4795
18   O2      -32.4121   -8.0572   24.9359  O.co2 1 <0>        -0.2492
19   H1      -26.6041  -15.5617   28.1728  H     1 <0>         0.0624
20   H2      -28.7556  -15.9662   27.1512  H     1 <0>         0.0638
21   H3      -27.2452  -11.3743   27.8296  H     1 <0>         0.0630
22   H4      -24.2029  -13.5482   30.2792  H     1 <0>         0.0535
23   H5      -25.4440  -14.7078   30.1396  H     1 <0>         0.0535
24   H6      -25.0717  -12.2747   28.5937  H     1 <0>         0.0618
25   H7      -29.7253   -9.9137   27.6813  H     1 <0>         0.0334
26   H8      -29.2941   -9.9061   25.9695  H     1 <0>         0.0334
27   H9      -32.4094  -12.7487   24.8596  H     1 <0>         0.0488
28   H10     -32.9138  -12.3449   26.4932  H     1 <0>         0.0488
29   H11     -32.0463   -9.8636   27.2810  H     1 <0>         0.0579
30   H12     -31.5908  -10.6572   24.4999  H     1 <0>         0.1231
31   H13     -33.0679  -10.4161   25.1987  H     1 <0>         0.0000
@<TRIPOS>BOND
     1    1    2 ar
     2    1    5 ar
     3    2    7 ar
     4    3    4 ar
     5    3    5 ar
     6    4    6 1
     7    4    7 ar
     8    5   10 1
     9    6    8 2
    10    6   12 1
    11    7   15 1
    12    8   13 1
    13    8   15 1
    14    9   10 2
    15   11   14 1
    16   11   17 1
    17   11   18 2
    18   12   14 1
    19   13   16 1
    20   14   16 1
    21    1   19 1
    22    2   20 1
    23    3   21 1
    24    9   22 1
    25    9   23 1
    26   10   24 1
    27   12   25 1
    28   12   26 1
    29   13   27 1
    30   13   28 1
    31   14   29 1
    32   16   30 1
    33   16   31 1
@<TRIPOS>PROPERTY_DATA
  Total_Score	| 8.7738
  Crash		| -0.7113
  Polar		| 6.6337

@<TRIPOS>MOLECULE
ligand_uncharged10_000
   45    48     0     0     0
SMALL
USER_CHARGES

@<TRIPOS>ATOM
1    C1      -29.1957  -15.7631   27.5843  C.ar  1 <0>        -0.0463
2    C2      -29.9869  -15.6613   26.4161  C.ar  1 <0>        -0.0367
3    C3      -29.2623  -13.3345   27.8459  C.ar  1 <0>        -0.0389
4    C4      -30.0678  -13.2483   26.7061  C.ar  1 <0>         0.0042
5    C5      -28.8327  -14.5953   28.3138  C.ar  1 <0>         0.0090
6    C6      -30.6772  -12.2170   26.0622  C.2   1 <0>        -0.0158
7    C7      -30.4369  -14.3976   26.0052  C.ar  1 <0>         0.0470
8    C8      -31.3752  -12.7611   25.0460  C.cat 1 <0>         0.0343
9    C9      -31.7846   -8.6103   25.8337  C.2   1 <0>         0.3223
10   C10     -26.0474  -16.5747   29.2765  C.2   1 <0>         0.2259
11   C11     -30.6580  -10.8022   26.3835  C.3   1 <0>         0.0005
12   C12     -32.4184  -12.0336   24.3518  C.3   1 <0>         0.0374
13   C13     -23.9576  -16.5143   27.9928  C.3   1 <0>         0.0382
14   C14     -24.9755  -14.4033   28.6400  C.3   1 <0>         0.0382
15   C15     -24.0859  -16.1243   26.5013  C.3   1 <0>         0.0635
16   C16     -25.1402  -14.0336   27.1355  C.3   1 <0>         0.0635
17   C17     -31.9429  -10.0774   25.8769  C.3   1 <0>         0.1101
18   C18     -27.1442  -16.1196   30.1408  C.3   1 <0>         0.0750
19   N1      -31.2095  -14.0463   25.0078  N.2   1 <0>        -0.3567
20   N2      -32.2964  -10.5605   24.5184  N.3   1 <0>        -0.2984
21   N3      -25.0357  -15.8602   28.7358  N.am  1 <0>        -0.2964
22   O1      -31.0925   -7.9651   26.8014  O.co2 1 <0>        -0.4795
23   O2      -32.6135   -7.8659   25.0718  O.co2 1 <0>        -0.2492
24   O3      -25.9648  -17.8143   29.2683  O.2   1 <0>        -0.2747
25   O4      -24.1113  -14.6881   26.3482  O.3   1 <0>        -0.3767
26   S1      -28.0201  -14.5534   29.8603  S.3   1 <0>        -0.1159
27   H1      -28.9135  -16.6893   27.9121  H     1 <0>         0.0629
28   H2      -30.2577  -16.5026   25.8893  H     1 <0>         0.0639
29   H3      -29.0232  -12.4774   28.3561  H     1 <0>         0.0635
30   H4      -30.5807  -10.6671   27.4628  H     1 <0>         0.0334
31   H5      -29.7696  -10.3650   25.9184  H     1 <0>         0.0334
32   H6      -32.3490  -12.2556   23.2839  H     1 <0>         0.0488
33   H7      -33.3962  -12.3595   24.7128  H     1 <0>         0.0488
34   H8      -23.9550  -17.6035   28.0621  H     1 <0>         0.0487
35   H9      -22.9943  -16.1852   28.3765  H     1 <0>         0.0487
36   H10     -24.0018  -14.0476   28.9888  H     1 <0>         0.0487
37   H11     -25.7103  -13.8729   29.2478  H     1 <0>         0.0487
38   H12     -23.2344  -16.5139   25.9409  H     1 <0>         0.0575
39   H13     -24.9948  -16.5705   26.0917  H     1 <0>         0.0575
40   H14     -26.1337  -14.3255   26.7811  H     1 <0>         0.0575
41   H15     -25.0341  -12.9527   27.0178  H     1 <0>         0.0575
42   H16     -32.7757  -10.3119   26.5414  H     1 <0>         0.0579
43   H17     -26.7245  -16.0389   31.1523  H     1 <0>         0.0474
44   H18     -27.9391  -16.8803   30.1925  H     1 <0>         0.0474
45   H19     -31.5939  -10.2237   23.8601  H     1 <0>         0.1231
@<TRIPOS>BOND
     1    1    2 ar
     2    1    5 ar
     3    2    7 ar
     4    3    4 ar
     5    3    5 ar
     6    4    6 2
     7    4    7 ar
     8    5   26 1
     9    6    8 1
    10    6   11 1
    11    7   19 2
    12    8   12 1
    13    8   19 1
    14    9   17 1
    15    9   22 1
    16    9   23 2
    17   10   18 1
    18   10   21 am
    19   10   24 2
    20   11   17 1
    21   12   20 1
    22   13   15 1
    23   13   21 1
    24   14   16 1
    25   14   21 1
    26   15   25 1
    27   16   25 1
    28   17   20 1
    29   18   26 1
    30    1   27 1
    31    2   28 1
    32    3   29 1
    33   11   30 1
    34   11   31 1
    35   12   32 1
    36   12   33 1
    37   13   34 1
    38   13   35 1
    39   14   36 1
    40   14   37 1
    41   15   38 1
    42   15   39 1
    43   16   40 1
    44   16   41 1
    45   17   42 1
    46   18   43 1
    47   18   44 1
    48   20   45 1
@<TRIPOS>PROPERTY_DATA
  Total_Score	| 8.9178
  Crash		| -4.3723
  Polar		| 5.6968

@<TRIPOS>MOLECULE
ligand_uncharged10_001
   45    48     0     0     0
SMALL
USER_CHARGES

@<TRIPOS>ATOM
1    C1      -29.5103  -15.6975   27.6393  C.ar  1 <0>        -0.0463
2    C2      -30.1586  -15.6134   26.3878  C.ar  1 <0>        -0.0367
3    C3      -29.3676  -13.2573   27.7576  C.ar  1 <0>        -0.0389
4    C4      -30.0549  -13.1908   26.5349  C.ar  1 <0>         0.0042
5    C5      -29.1291  -14.5234   28.3393  C.ar  1 <0>         0.0090
6    C6      -30.5251  -12.1588   25.7874  C.2   1 <0>        -0.0158
7    C7      -30.4579  -14.3421   25.8687  C.ar  1 <0>         0.0470
8    C8      -31.2410  -12.7035   24.7837  C.cat 1 <0>         0.0343
9    C9      -31.8212   -8.6277   25.8835  C.2   1 <0>         0.3223
10   C10     -26.4242  -15.9390   29.0145  C.2   1 <0>         0.2259
11   C11     -30.4746  -10.7333   26.0421  C.3   1 <0>         0.0005
12   C12     -32.4028  -12.0161   24.2413  C.3   1 <0>         0.0374
13   C13     -24.6689  -15.0059   27.5814  C.3   1 <0>         0.0382
14   C14     -25.3005  -13.8109   29.6140  C.3   1 <0>         0.0382
15   C15     -24.7874  -13.6714   26.7973  C.3   1 <0>         0.0635
16   C16     -25.4725  -12.5124   28.7880  C.3   1 <0>         0.0635
17   C17     -31.8819  -10.1039   25.8213  C.3   1 <0>         0.1101
18   C18     -27.4180  -15.9300   30.0795  C.3   1 <0>         0.0750
19   N1      -31.1459  -13.9956   24.8120  N.2   1 <0>        -0.3567
20   N2      -32.4177  -10.5501   24.5040  N.3   1 <0>        -0.2984
21   N3      -25.5154  -14.9745   28.7659  N.am  1 <0>        -0.2964
22   O1      -31.0646   -8.0023   26.8145  O.co2 1 <0>        -0.4795
23   O2      -32.5395   -7.8609   25.0332  O.co2 1 <0>        -0.2492
24   O3      -26.4592  -16.9414   28.3094  O.2   1 <0>        -0.2747
25   O4      -24.5786  -12.5321   27.6593  O.3   1 <0>        -0.3767
26   S1      -28.5645  -14.5322   29.9926  S.3   1 <0>        -0.1159
27   H1      -29.3637  -16.6193   28.0558  H     1 <0>         0.0629
28   H2      -30.4594  -16.4567   25.8951  H     1 <0>         0.0639
29   H3      -29.1082  -12.3950   28.2430  H     1 <0>         0.0635
30   H4      -30.1312  -10.5303   27.0588  H     1 <0>         0.0334
31   H5      -29.7574  -10.2916   25.3438  H     1 <0>         0.0334
32   H6      -32.4113  -12.1646   23.1615  H     1 <0>         0.0488
33   H7      -33.3132  -12.4530   24.6600  H     1 <0>         0.0488
34   H8      -24.8969  -15.8173   26.8839  H     1 <0>         0.0487
35   H9      -23.6357  -15.1472   27.9027  H     1 <0>         0.0487
36   H10     -24.2877  -13.8350   30.0177  H     1 <0>         0.0487
37   H11     -25.9545  -13.7530   30.4748  H     1 <0>         0.0487
38   H12     -24.0308  -13.6475   26.0111  H     1 <0>         0.0575
39   H13     -25.7721  -13.6084   26.3241  H     1 <0>         0.0575
40   H14     -26.5081  -12.4032   28.4529  H     1 <0>         0.0575
41   H15     -25.2278  -11.6471   29.4062  H     1 <0>         0.0575
42   H16     -32.5590  -10.4478   26.6096  H     1 <0>         0.0579
43   H17     -26.9087  -15.8995   31.0436  H     1 <0>         0.0474
44   H18     -28.0288  -16.8360   30.0761  H     1 <0>         0.0474
45   H19     -31.8938  -10.0824   23.7642  H     1 <0>         0.1231
@<TRIPOS>BOND
     1    1    2 ar
     2    1    5 ar
     3    2    7 ar
     4    3    4 ar
     5    3    5 ar
     6    4    6 2
     7    4    7 ar
     8    5   26 1
     9    6    8 1
    10    6   11 1
    11    7   19 2
    12    8   12 1
    13    8   19 1
    14    9   17 1
    15    9   22 1
    16    9   23 2
    17   10   18 1
    18   10   21 am
    19   10   24 2
    20   11   17 1
    21   12   20 1
    22   13   15 1
    23   13   21 1
    24   14   16 1
    25   14   21 1
    26   15   25 1
    27   16   25 1
    28   17   20 1
    29   18   26 1
    30    1   27 1
    31    2   28 1
    32    3   29 1
    33   11   30 1
    34   11   31 1
    35   12   32 1
    36   12   33 1
    37   13   34 1
    38   13   35 1
    39   14   36 1
    40   14   37 1
    41   15   38 1
    42   15   39 1
    43   16   40 1
    44   16   41 1
    45   17   42 1
    46   18   43 1
    47   18   44 1
    48   20   45 1
@<TRIPOS>PROPERTY_DATA
  Total_Score	| 8.9113
  Crash		| -4.2536
  Polar		| 6.0105

@<TRIPOS>MOLECULE
ligand_uncharged10_002
   45    48     0     0     0
SMALL
USER_CHARGES

@<TRIPOS>ATOM
1    C1      -28.3663  -15.7967   27.1066  C.ar  1 <0>        -0.0463
2    C2      -29.4866  -15.8139   26.2437  C.ar  1 <0>        -0.0367
3    C3      -28.8581  -13.4666   27.7167  C.ar  1 <0>        -0.0389
4    C4      -29.9360  -13.4933   26.8112  C.ar  1 <0>         0.0042
5    C5      -28.0203  -14.6078   27.8036  C.ar  1 <0>         0.0090
6    C6      -30.8017  -12.5395   26.3727  C.2   1 <0>        -0.0158
7    C7      -30.2415  -14.6424   26.0846  C.ar  1 <0>         0.0470
8    C8      -31.5591  -13.1297   25.4298  C.cat 1 <0>         0.0343
9    C9      -31.8154   -8.9084   25.9869  C.2   1 <0>         0.3223
10   C10     -25.2805  -12.1134   28.4846  C.2   1 <0>         0.2259
11   C11     -30.7641  -11.1153   26.6425  C.3   1 <0>         0.0005
12   C12     -32.5197  -12.3917   24.6243  C.3   1 <0>         0.0374
13   C13     -25.5355   -9.9094   29.5539  C.3   1 <0>         0.0382
14   C14     -27.1672  -10.6180   27.8668  C.3   1 <0>         0.0382
15   C15     -25.6400   -8.4570   29.0001  C.3   1 <0>         0.0635
16   C16     -27.1009   -9.1967   27.2638  C.3   1 <0>         0.0635
17   C17     -32.0154  -10.3743   26.0606  C.3   1 <0>         0.1101
18   C18     -25.6369  -13.2987   27.6869  C.3   1 <0>         0.0750
19   N1      -31.2062  -14.3635   25.2511  N.2   1 <0>        -0.3567
20   N2      -32.3302  -10.9161   24.7117  N.3   1 <0>        -0.2984
21   N3      -25.9351  -10.9290   28.5857  N.am  1 <0>        -0.2964
22   O1      -31.1270   -8.2667   26.9559  O.co2 1 <0>        -0.4795
23   O2      -32.4486   -8.1529   25.0576  O.co2 1 <0>        -0.2492
24   O3      -24.2810  -12.3059   29.1756  O.2   1 <0>        -0.2747
25   O4      -26.8809   -8.2331   28.3084  O.3   1 <0>        -0.3767
26   S1      -26.5360  -14.5179   28.7037  S.3   1 <0>        -0.1159
27   H1      -27.7917  -16.6412   27.1884  H     1 <0>         0.0629
28   H2      -29.7193  -16.6595   25.7122  H     1 <0>         0.0639
29   H3      -28.6573  -12.6371   28.2769  H     1 <0>         0.0635
30   H4      -30.7228  -10.9512   27.7206  H     1 <0>         0.0334
31   H5      -29.8505  -10.7108   26.2058  H     1 <0>         0.0334
32   H6      -32.4218  -12.6678   23.5684  H     1 <0>         0.0488
33   H7      -33.5334  -12.6419   24.9592  H     1 <0>         0.0488
34   H8      -24.5175  -10.0278   29.9260  H     1 <0>         0.0487
35   H9      -26.1977  -10.0039   30.4102  H     1 <0>         0.0487
36   H10     -27.9847  -10.6030   28.5864  H     1 <0>         0.0487
37   H11     -27.4346  -11.3149   27.0760  H     1 <0>         0.0487
38   H12     -25.5692   -7.7399   29.8178  H     1 <0>         0.0575
39   H13     -24.8197   -8.2531   28.3080  H     1 <0>         0.0575
40   H14     -26.3151   -9.1429   26.5025  H     1 <0>         0.0575
41   H15     -28.0494   -8.9658   26.7815  H     1 <0>         0.0575
42   H16     -32.8680  -10.5650   26.7123  H     1 <0>         0.0579
43   H17     -24.7195  -13.7950   27.3468  H     1 <0>         0.0474
44   H18     -26.1638  -13.0451   26.7697  H     1 <0>         0.0474
45   H19     -31.5566  -10.6624   24.0916  H     1 <0>         0.1231
@<TRIPOS>BOND
     1    1    2 ar
     2    1    5 ar
     3    2    7 ar
     4    3    4 ar
     5    3    5 ar
     6    4    6 2
     7    4    7 ar
     8    5   26 1
     9    6    8 1
    10    6   11 1
    11    7   19 2
    12    8   12 1
    13    8   19 1
    14    9   17 1
    15    9   22 1
    16    9   23 2
    17   10   18 1
    18   10   21 am
    19   10   24 2
    20   11   17 1
    21   12   20 1
    22   13   15 1
    23   13   21 1
    24   14   16 1
    25   14   21 1
    26   15   25 1
    27   16   25 1
    28   17   20 1
    29   18   26 1
    30    1   27 1
    31    2   28 1
    32    3   29 1
    33   11   30 1
    34   11   31 1
    35   12   32 1
    36   12   33 1
    37   13   34 1
    38   13   35 1
    39   14   36 1
    40   14   37 1
    41   15   38 1
    42   15   39 1
    43   16   40 1
    44   16   41 1
    45   17   42 1
    46   18   43 1
    47   18   44 1
    48   20   45 1
@<TRIPOS>PROPERTY_DATA
  Total_Score	| 8.9018
  Crash		| -3.3079
  Polar		| 5.7248

@<TRIPOS>MOLECULE
ligand_uncharged14_000
   26    28     0     0     0
SMALL
USER_CHARGES

@<TRIPOS>ATOM
1    C1      -27.2092  -14.7026   28.0501  C.ar  1 <0>        -0.0458
2    C2      -28.4668  -14.9820   27.4756  C.ar  1 <0>        -0.0367
3    C3      -27.6085  -12.2939   27.8109  C.ar  1 <0>        -0.0383
4    C4      -28.8577  -12.5877   27.2378  C.ar  1 <0>         0.0042
5    C5      -26.7825  -13.3646   28.2157  C.ar  1 <0>         0.0186
6    C6      -29.8831  -11.8259   26.7674  C.2   1 <0>        -0.0158
7    C7      -29.2763  -13.9078   27.0724  C.ar  1 <0>         0.0470
8    C8      -30.8213  -12.6848   26.3229  C.cat 1 <0>         0.0343
9    C9      -31.4894   -8.4899   25.9288  C.2   1 <0>         0.3223
10   C10     -29.9961  -10.3779   26.7080  C.3   1 <0>         0.0005
11   C11     -32.0653  -12.2559   25.7134  C.3   1 <0>         0.0374
12   C12     -31.4526   -9.8971   26.3960  C.3   1 <0>         0.1101
13   N1      -30.4611  -13.9092   26.5211  N.2   1 <0>        -0.3567
14   N2      -32.0576  -10.8053   25.3835  N.3   1 <0>        -0.2984
15   O1      -30.7601   -7.5400   26.5578  O.co2 1 <0>        -0.4795
16   O2      -32.3660   -8.0828   24.9800  O.co2 1 <0>        -0.2492
17   Br1     -25.1203  -13.0177   28.9724  Br    1 <0>        -0.0503
18   H1      -26.6065  -15.4734   28.3454  H     1 <0>         0.0629
19   H2      -28.7831  -15.9462   27.3519  H     1 <0>         0.0639
20   H3      -27.3067  -11.3245   27.9360  H     1 <0>         0.0635
21   H4      -29.6818   -9.9626   27.6683  H     1 <0>         0.0334
22   H5      -29.3077  -10.0225   25.9352  H     1 <0>         0.0334
23   H6      -32.2204  -12.8077   24.7834  H     1 <0>         0.0488
24   H7      -32.8961  -12.4763   26.3867  H     1 <0>         0.0488
25   H8      -32.0512   -9.9445   27.3128  H     1 <0>         0.0579
26   H9      -31.5397  -10.6859   24.5108  H     1 <0>         0.1231
@<TRIPOS>BOND
     1    1    2 ar
     2    1    5 ar
     3    2    7 ar
     4    3    4 ar
     5    3    5 ar
     6    4    6 2
     7    4    7 ar
     8    5   17 1
     9    6    8 1
    10    6   10 1
    11    7   13 2
    12    8   11 1
    13    8   13 1
    14    9   12 1
    15    9   15 1
    16    9   16 2
    17   10   12 1
    18   11   14 1
    19   12   14 1
    20    1   18 1
    21    2   19 1
    22    3   20 1
    23   10   21 1
    24   10   22 1
    25   11   23 1
    26   11   24 1
    27   12   25 1
    28   14   26 1
@<TRIPOS>PROPERTY_DATA
  Total_Score	| 8.5334
  Crash		| -0.3247
  Polar		| 6.1988

@<TRIPOS>MOLECULE
ligand_uncharged14_001
   26    28     0     0     0
SMALL
USER_CHARGES

@<TRIPOS>ATOM
1    C1      -27.3526  -14.6843   27.9289  C.ar  1 <0>        -0.0458
2    C2      -28.6028  -14.9377   27.3233  C.ar  1 <0>        -0.0367
3    C3      -27.7290  -12.2683   27.7738  C.ar  1 <0>        -0.0383
4    C4      -28.9706  -12.5355   27.1673  C.ar  1 <0>         0.0042
5    C5      -26.9162  -13.3578   28.1519  C.ar  1 <0>         0.0186
6    C6      -29.9718  -11.7427   26.7019  C.2   1 <0>        -0.0158
7    C7      -29.3962  -13.8428   26.9414  C.ar  1 <0>         0.0470
8    C8      -30.9034  -12.5722   26.1879  C.cat 1 <0>         0.0343
9    C9      -31.5485   -8.3875   25.9728  C.2   1 <0>         0.3223
10   C10     -30.0600  -10.2946   26.6982  C.3   1 <0>         0.0005
11   C11     -32.1227  -12.1054   25.5531  C.3   1 <0>         0.0374
12   C12     -31.5087   -9.8099   26.3645  C.3   1 <0>         0.1101
13   N1      -30.5669  -13.8080   26.3553  N.2   1 <0>        -0.3567
14   N2      -32.0963  -10.6458   25.2840  N.3   1 <0>        -0.2984
15   O1      -32.4123   -7.9502   25.0270  O.co2 1 <0>        -0.4795
16   O2      -30.7048   -7.4957   26.5397  O.co2 1 <0>        -0.2492
17   Br1     -25.2673  -13.0504   28.9588  Br    1 <0>        -0.0503
18   H1      -26.7596  -15.4678   28.2063  H     1 <0>         0.0629
19   H2      -28.9197  -15.8977   27.1643  H     1 <0>         0.0639
20   H3      -27.4215  -11.3061   27.9314  H     1 <0>         0.0635
21   H4      -29.7780   -9.9109   27.6842  H     1 <0>         0.0334
22   H5      -29.3438   -9.9149   25.9623  H     1 <0>         0.0334
23   H6      -32.2558  -12.6181   24.5980  H     1 <0>         0.0488
24   H7      -32.9742  -12.3397   26.1952  H     1 <0>         0.0488
25   H8      -32.1279   -9.9313   27.2595  H     1 <0>         0.0579
26   H9      -31.5783  -10.4756   24.4195  H     1 <0>         0.1231
@<TRIPOS>BOND
     1    1    2 ar
     2    1    5 ar
     3    2    7 ar
     4    3    4 ar
     5    3    5 ar
     6    4    6 2
     7    4    7 ar
     8    5   17 1
     9    6    8 1
    10    6   10 1
    11    7   13 2
    12    8   11 1
    13    8   13 1
    14    9   12 1
    15    9   15 1
    16    9   16 2
    17   10   12 1
    18   11   14 1
    19   12   14 1
    20    1   18 1
    21    2   19 1
    22    3   20 1
    23   10   21 1
    24   10   22 1
    25   11   23 1
    26   11   24 1
    27   12   25 1
    28   14   26 1
@<TRIPOS>PROPERTY_DATA
  Total_Score	| 8.3205
  Crash		| -0.1932
  Polar		| 5.9613

@<TRIPOS>MOLECULE
ligand_uncharged14_002
   26    28     0     0     0
SMALL
USER_CHARGES

@<TRIPOS>ATOM
1    C1      -28.7340  -15.7860   27.6504  C.ar  1 <0>        -0.0458
2    C2      -29.6490  -15.7651   26.5774  C.ar  1 <0>        -0.0367
3    C3      -29.0105  -13.3752   27.9765  C.ar  1 <0>        -0.0383
4    C4      -29.9368  -13.3712   26.9153  C.ar  1 <0>         0.0042
5    C5      -28.4078  -14.5976   28.3447  C.ar  1 <0>         0.0186
6    C6      -30.6985  -12.4038   26.3436  C.2   1 <0>        -0.0158
7    C7      -30.2345  -14.5388   26.2159  C.ar  1 <0>         0.0470
8    C8      -31.3627  -12.9878   25.3306  C.cat 1 <0>         0.0343
9    C9      -31.8110   -8.7816   25.9226  C.2   1 <0>         0.3223
10   C10     -30.7509  -10.9871   26.6620  C.3   1 <0>         0.0005
11   C11     -32.2838  -12.2697   24.4726  C.3   1 <0>         0.0374
12   C12     -31.9643  -10.2608   25.9840  C.3   1 <0>         0.1101
13   N1      -31.0760  -14.2500   25.2549  N.2   1 <0>        -0.3567
14   N2      -32.1448  -10.7949   24.6076  N.3   1 <0>        -0.2984
15   O1      -32.5582   -8.0500   25.0631  O.co2 1 <0>        -0.4795
16   O2      -31.0758   -8.0995   26.8309  O.co2 1 <0>        -0.2492
17   Br1     -27.1912  -14.6426   29.7486  Br    1 <0>        -0.0503
18   H1      -28.2912  -16.6667   27.9214  H     1 <0>         0.0629
19   H2      -29.8863  -16.6222   26.0740  H     1 <0>         0.0639
20   H3      -28.7806  -12.5097   28.4693  H     1 <0>         0.0635
21   H4      -30.8181  -10.8589   27.7460  H     1 <0>         0.0334
22   H5      -29.8086  -10.5438   26.3211  H     1 <0>         0.0334
23   H6      -32.0733  -12.5312   23.4332  H     1 <0>         0.0488
24   H7      -33.3081  -12.5653   24.6986  H     1 <0>         0.0488
25   H8      -32.8760  -10.4777   26.5469  H     1 <0>         0.0579
26   H9      -31.3399  -10.4973   24.0606  H     1 <0>         0.1231
@<TRIPOS>BOND
     1    1    2 ar
     2    1    5 ar
     3    2    7 ar
     4    3    4 ar
     5    3    5 ar
     6    4    6 2
     7    4    7 ar
     8    5   17 1
     9    6    8 1
    10    6   10 1
    11    7   13 2
    12    8   11 1
    13    8   13 1
    14    9   12 1
    15    9   15 1
    16    9   16 2
    17   10   12 1
    18   11   14 1
    19   12   14 1
    20    1   18 1
    21    2   19 1
    22    3   20 1
    23   10   21 1
    24   10   22 1
    25   11   23 1
    26   11   24 1
    27   12   25 1
    28   14   26 1
@<TRIPOS>PROPERTY_DATA
  Total_Score	| 7.5564
  Crash		| -0.8273
  Polar		| 4.7035

@<TRIPOS>MOLECULE
ligand_hydrophobic21_000
   40    42     0     0     0
SMALL
USER_CHARGES

@<TRIPOS>ATOM
1    C1      -27.4835  -14.9674   27.4501  C.ar  1 <0>        -0.0563
2    C2      -28.7962  -15.1252   26.9908  C.ar  1 <0>        -0.0375
3    C3      -27.7052  -12.5202   27.3425  C.ar  1 <0>        -0.0488
4    C4      -29.0267  -12.6878   26.8879  C.ar  1 <0>         0.0035
5    C5      -30.0331  -11.8020   26.5374  C.2   1 <0>        -0.0159
6    C6      -26.9161  -13.6743   27.6248  C.ar  1 <0>        -0.0429
7    C7      -29.5562  -13.9724   26.7141  C.ar  1 <0>         0.0470
8    C8      -31.1119  -12.5886   26.1322  C.2   1 <0>         0.0343
9    C9      -25.3431  -14.0924   29.4381  C.2   1 <0>        -0.0810
10   C10     -25.1101  -15.3681   29.8255  C.2   1 <0>        -0.0793
11   C11     -31.5065   -8.3499   25.9480  C.2   1 <0>         0.3223
12   C12     -30.0704  -10.3213   26.5417  C.3   1 <0>         0.0005
13   C13     -32.3849  -12.0299   25.6541  C.3   1 <0>         0.0374
14   C14     -31.5253   -9.7703   26.3522  C.3   1 <0>         0.1101
15   C15     -25.0370  -15.6290   31.2736  C.3   1 <0>        -0.0440
16   C16     -24.9305  -16.5117   28.9197  C.3   1 <0>        -0.0440
17   C17     -25.5039  -13.5485   28.0926  C.3   1 <0>        -0.0092
18   N1      -30.8113  -13.8932   26.2504  N.2   1 <0>        -0.3567
19   N2      -32.2667  -10.5848   25.3513  N.4   1 <0>        -0.2984
20   O1      -30.7241   -7.4648   26.5927  O.co2 1 <0>        -0.4795
21   O2      -32.3515   -7.8829   24.9896  O.co2 1 <0>        -0.2492
22   H1      -26.9269  -15.8065   27.6477  H     1 <0>         0.0621
23   H2      -29.1912  -16.0623   26.8428  H     1 <0>         0.0638
24   H3      -27.3270  -11.5725   27.4638  H     1 <0>         0.0627
25   H4      -25.4676  -13.4113   30.1589  H     1 <0>         0.0575
26   H5      -29.6741   -9.9663   27.4948  H     1 <0>         0.0334
27   H6      -29.4184   -9.9664   25.7408  H     1 <0>         0.0334
28   H7      -32.6775  -12.5433   24.7368  H     1 <0>         0.0488
29   H8      -33.1566  -12.1906   26.4080  H     1 <0>         0.0488
30   H9      -32.0549   -9.8310   27.3106  H     1 <0>         0.0579
31   H10     -25.9821  -15.3513   31.7489  H     1 <0>         0.0274
32   H11     -24.8428  -16.6800   31.5014  H     1 <0>         0.0274
33   H12     -24.2325  -15.0394   31.7213  H     1 <0>         0.0274
34   H13     -23.9463  -16.9669   29.0970  H     1 <0>         0.0274
35   H14     -25.6938  -17.2692   29.1373  H     1 <0>         0.0274
36   H15     -25.0097  -16.2637   27.8597  H     1 <0>         0.0274
37   H16     -24.8345  -14.0189   27.3690  H     1 <0>         0.0356
38   H17     -25.1972  -12.4985   28.1212  H     1 <0>         0.0356
39   H18     -31.7631  -10.4924   24.4652  H     1 <0>         0.1231
40   H19     -33.2113  -10.2087   25.2372  H     1 <0>         0.0000
@<TRIPOS>BOND
     1    1    2 ar
     2    1    6 ar
     3    2    7 ar
     4    3    4 ar
     5    3    6 ar
     6    4    5 1
     7    4    7 ar
     8    5    8 2
     9    5   12 1
    10    6   17 1
    11    7   18 1
    12    8   13 1
    13    8   18 1
    14    9   10 2
    15    9   17 1
    16   10   15 1
    17   10   16 1
    18   11   14 1
    19   11   20 1
    20   11   21 2
    21   12   14 1
    22   13   19 1
    23   14   19 1
    24    1   22 1
    25    2   23 1
    26    3   24 1
    27    9   25 1
    28   12   26 1
    29   12   27 1
    30   13   28 1
    31   13   29 1
    32   14   30 1
    33   15   31 1
    34   15   32 1
    35   15   33 1
    36   16   34 1
    37   16   35 1
    38   16   36 1
    39   17   37 1
    40   17   38 1
    41   19   39 1
    42   19   40 1
@<TRIPOS>PROPERTY_DATA
  Total_Score	| 9.3288
  Crash		| -1.6283
  Polar		| 6.4694

@<TRIPOS>MOLECULE
ligand_hydrophobic21_001
   40    42     0     0     0
SMALL
USER_CHARGES

@<TRIPOS>ATOM
1    C1      -28.3604  -15.7164   27.8711  C.ar  1 <0>        -0.0563
2    C2      -29.2973  -15.7734   26.8195  C.ar  1 <0>        -0.0375
3    C3      -28.6997  -13.3079   28.0788  C.ar  1 <0>        -0.0488
4    C4      -29.6416  -13.3755   27.0368  C.ar  1 <0>         0.0035
5    C5      -30.4482  -12.4190   26.4323  C.2   1 <0>        -0.0159
6    C6      -28.0299  -14.4865   28.5027  C.ar  1 <0>        -0.0429
7    C7      -29.9172  -14.5855   26.3985  C.ar  1 <0>         0.0470
8    C8      -31.1381  -13.0798   25.4146  C.2   1 <0>         0.0343
9    C9      -26.3456  -15.5919   30.0385  C.2   1 <0>        -0.0810
10   C10     -25.4241  -16.3011   29.3369  C.2   1 <0>        -0.0793
11   C11     -31.7276   -8.8664   25.8759  C.2   1 <0>         0.3223
12   C12     -30.5833  -10.9734   26.7133  C.3   1 <0>         0.0005
13   C13     -32.0972  -12.3931   24.5295  C.3   1 <0>         0.0374
14   C14     -31.8137  -10.3424   25.9779  C.3   1 <0>         0.1101
15   C15     -24.8987  -17.5562   29.8675  C.3   1 <0>        -0.0440
16   C16     -24.9027  -15.8335   28.0544  C.3   1 <0>        -0.0440
17   C17     -27.0190  -14.3726   29.6014  C.3   1 <0>        -0.0092
18   N1      -30.7952  -14.3844   25.4015  N.2   1 <0>        -0.3567
19   N2      -31.9603  -10.9161   24.6122  N.4   1 <0>        -0.2984
20   O1      -31.0864   -8.1560   26.8326  O.co2 1 <0>        -0.4795
21   O2      -32.6137   -8.1871   25.1072  O.co2 1 <0>        -0.2492
22   H1      -27.9167  -16.5867   28.1675  H     1 <0>         0.0621
23   H2      -29.5181  -16.6632   26.3673  H     1 <0>         0.0638
24   H3      -28.4966  -12.4057   28.5169  H     1 <0>         0.0627
25   H4      -26.6127  -15.9295   30.9388  H     1 <0>         0.0575
26   H5      -30.7018  -10.8332   27.7887  H     1 <0>         0.0334
27   H6      -29.6538  -10.4891   26.4021  H     1 <0>         0.0334
28   H7      -31.9174  -12.6883   23.4962  H     1 <0>         0.0488
29   H8      -33.1133  -12.6807   24.7994  H     1 <0>         0.0488
30   H9      -32.7227  -10.5775   26.5396  H     1 <0>         0.0579
31   H10     -25.1447  -18.3633   29.1780  H     1 <0>         0.0274
32   H11     -23.8134  -17.5003   29.9602  H     1 <0>         0.0274
33   H12     -25.3063  -17.8155   30.8471  H     1 <0>         0.0274
34   H13     -24.4258  -14.8553   28.1757  H     1 <0>         0.0274
35   H14     -24.1518  -16.5125   27.6403  H     1 <0>         0.0274
36   H15     -25.7154  -15.7505   27.3273  H     1 <0>         0.0274
37   H16     -26.2564  -13.6408   29.3121  H     1 <0>         0.0356
38   H17     -27.5375  -13.9434   30.4630  H     1 <0>         0.0356
39   H18     -31.1271  -10.6516   24.0853  H     1 <0>         0.1231
40   H19     -32.7740  -10.5019   24.1497  H     1 <0>         0.0000
@<TRIPOS>BOND
     1    1    2 ar
     2    1    6 ar
     3    2    7 ar
     4    3    4 ar
     5    3    6 ar
     6    4    5 1
     7    4    7 ar
     8    5    8 2
     9    5   12 1
    10    6   17 1
    11    7   18 1
    12    8   13 1
    13    8   18 1
    14    9   10 2
    15    9   17 1
    16   10   15 1
    17   10   16 1
    18   11   14 1
    19   11   20 1
    20   11   21 2
    21   12   14 1
    22   13   19 1
    23   14   19 1
    24    1   22 1
    25    2   23 1
    26    3   24 1
    27    9   25 1
    28   12   26 1
    29   12   27 1
    30   13   28 1
    31   13   29 1
    32   14   30 1
    33   15   31 1
    34   15   32 1
    35   15   33 1
    36   16   34 1
    37   16   35 1
    38   16   36 1
    39   17   37 1
    40   17   38 1
    41   19   39 1
    42   19   40 1
@<TRIPOS>PROPERTY_DATA
  Total_Score	| 9.2602
  Crash		| -1.1031
  Polar		| 4.5428

@<TRIPOS>MOLECULE
ligand_hydrophobic21_002
   40    42     0     0     0
SMALL
USER_CHARGES

@<TRIPOS>ATOM
1    C1      -28.7150  -15.9301   27.4245  C.ar  1 <0>        -0.0563
2    C2      -29.6751  -15.8976   26.3937  C.ar  1 <0>        -0.0375
3    C3      -28.9557  -13.5263   27.7772  C.ar  1 <0>        -0.0488
4    C4      -29.9310  -13.5079   26.7640  C.ar  1 <0>         0.0035
5    C5      -30.7165  -12.4906   26.2425  C.2   1 <0>        -0.0159
6    C6      -28.3275  -14.7522   28.1183  C.ar  1 <0>        -0.0429
7    C7      -30.2710  -14.6684   26.0703  C.ar  1 <0>         0.0470
8    C8      -31.4611  -13.0702   25.2155  C.2   1 <0>         0.0343
9    C9      -26.1594  -15.6327   28.9703  C.2   1 <0>        -0.0810
10   C10     -25.2149  -15.4424   28.0224  C.2   1 <0>        -0.0793
11   C11     -31.8230   -8.8615   25.9057  C.2   1 <0>         0.3223
12   C12     -30.7758  -11.0570   26.5955  C.3   1 <0>         0.0005
13   C13     -32.3759  -12.2885   24.3643  C.3   1 <0>         0.0374
14   C14     -31.9936  -10.3359   25.9361  C.3   1 <0>         0.1101
15   C15     -24.2001  -16.4663   27.7907  C.3   1 <0>        -0.0440
16   C16     -25.1497  -14.2281   27.2136  C.3   1 <0>        -0.0440
17   C17     -27.3357  -14.8100   29.2375  C.3   1 <0>        -0.0092
18   N1      -31.1757  -14.3830   25.1167  N.2   1 <0>        -0.3567
19   N2      -32.2397  -10.8218   24.5479  N.4   1 <0>        -0.2984
20   O1      -32.6026   -8.1042   25.0918  O.co2 1 <0>        -0.4795
21   O2      -31.1931   -8.2181   26.9181  O.co2 1 <0>        -0.2492
22   H1      -28.2883  -16.8305   27.6672  H     1 <0>         0.0621
23   H2      -29.9428  -16.7477   25.8979  H     1 <0>         0.0638
24   H3      -28.7137  -12.6571   28.2639  H     1 <0>         0.0627
25   H4      -26.0727  -16.4377   29.5489  H     1 <0>         0.0575
26   H5      -30.8516  -10.9665   27.6789  H     1 <0>         0.0334
27   H6      -29.8341  -10.6043   26.2761  H     1 <0>         0.0334
28   H7      -32.1483  -12.5115   23.3209  H     1 <0>         0.0488
29   H8      -33.4070  -12.5885   24.5691  H     1 <0>         0.0488
30   H9      -32.8905  -10.5526   26.5211  H     1 <0>         0.0579
31   H10     -24.2548  -16.8044   26.7533  H     1 <0>         0.0274
32   H11     -23.2096  -16.0559   27.9761  H     1 <0>         0.0274
33   H12     -24.3122  -17.3428   28.4308  H     1 <0>         0.0274
34   H13     -24.9747  -13.3653   27.8623  H     1 <0>         0.0274
35   H14     -24.3405  -14.2592   26.4786  H     1 <0>         0.0274
36   H15     -26.0829  -14.0795   26.6660  H     1 <0>         0.0274
37   H16     -27.0014  -13.8072   29.5333  H     1 <0>         0.0356
38   H17     -27.8689  -15.2229   30.1045  H     1 <0>         0.0356
39   H18     -31.4598  -10.5078   23.9708  H     1 <0>         0.1231
40   H19     -33.0986  -10.3957   24.1923  H     1 <0>         0.0000
@<TRIPOS>BOND
     1    1    2 ar
     2    1    6 ar
     3    2    7 ar
     4    3    4 ar
     5    3    6 ar
     6    4    5 1
     7    4    7 ar
     8    5    8 2
     9    5   12 1
    10    6   17 1
    11    7   18 1
    12    8   13 1
    13    8   18 1
    14    9   10 2
    15    9   17 1
    16   10   15 1
    17   10   16 1
    18   11   14 1
    19   11   20 1
    20   11   21 2
    21   12   14 1
    22   13   19 1
    23   14   19 1
    24    1   22 1
    25    2   23 1
    26    3   24 1
    27    9   25 1
    28   12   26 1
    29   12   27 1
    30   13   28 1
    31   13   29 1
    32   14   30 1
    33   15   31 1
    34   15   32 1
    35   15   33 1
    36   16   34 1
    37   16   35 1
    38   16   36 1
    39   17   37 1
    40   17   38 1
    41   19   39 1
    42   19   40 1
@<TRIPOS>PROPERTY_DATA
  Total_Score	| 8.6774
  Crash		| -1.9521
  Polar		| 4.6218

@<TRIPOS>MOLECULE
ligand_hydrophobic29_000
   34    36     0     0     0
SMALL
USER_CHARGES

@<TRIPOS>ATOM
1    C1      -27.2038  -14.4921   28.4127  C.ar  1 <0>        -0.0544
2    C2      -28.4020  -14.8392   27.7489  C.ar  1 <0>        -0.0375
3    C3      -27.6871  -12.1134   28.1257  C.ar  1 <0>        -0.0469
4    C4      -28.8905  -12.4670   27.4815  C.ar  1 <0>         0.0035
5    C5      -29.9187  -11.7188   26.9206  C.2   1 <0>        -0.0159
6    C6      -26.8176  -13.1342   28.5871  C.ar  1 <0>        -0.0212
7    C7      -29.2283  -13.8068   27.2780  C.ar  1 <0>         0.0470
8    C8      -30.8334  -12.6307   26.3905  C.2   1 <0>         0.0343
9    C9      -31.5785   -8.4419   25.9352  C.2   1 <0>         0.3223
10   C10     -30.0808  -10.2488   26.8458  C.3   1 <0>         0.0005
11   C11     -32.0742  -12.2131   25.7245  C.3   1 <0>         0.0374
12   C12     -31.5317   -9.8423   26.4217  C.3   1 <0>         0.1101
13   C13     -24.4627  -13.2864   27.0789  C.3   1 <0>         0.0369
14   C14     -25.5228  -12.7892   29.2256  C.3   1 <0>         0.0723
15   N1      -30.4011  -13.8883   26.6232  N.2   1 <0>        -0.3567
16   N2      -32.0735  -10.7653   25.3791  N.4   1 <0>        -0.2984
17   O1      -30.8447   -7.4846   26.5570  O.co2 1 <0>        -0.4795
18   O2      -32.4721   -8.0603   24.9906  O.co2 1 <0>        -0.2492
19   O3      -24.4817  -12.4741   28.2804  O.3   1 <0>        -0.3784
20   H1      -26.5932  -15.2482   28.7282  H     1 <0>         0.0622
21   H2      -28.6539  -15.8214   27.5887  H     1 <0>         0.0638
22   H3      -27.4531  -11.1247   28.2503  H     1 <0>         0.0628
23   H4      -29.8728   -9.8243   27.8353  H     1 <0>         0.0334
24   H5      -29.3425   -9.8620   26.1259  H     1 <0>         0.0334
25   H6      -32.1776  -12.7844   24.8016  H     1 <0>         0.0488
26   H7      -32.9226  -12.4444   26.3731  H     1 <0>         0.0488
27   H8      -32.1900   -9.9030   27.2953  H     1 <0>         0.0579
28   H9      -23.4666  -13.2091   26.6371  H     1 <0>         0.0524
29   H10     -25.2049  -12.9045   26.3574  H     1 <0>         0.0524
30   H11     -24.6793  -14.3476   27.2898  H     1 <0>         0.0524
31   H12     -25.6632  -11.9109   29.8586  H     1 <0>         0.0610
32   H13     -25.1710  -13.5945   29.8732  H     1 <0>         0.0610
33   H14     -31.5050  -10.6490   24.5327  H     1 <0>         0.1231
34   H15     -33.0439  -10.4999   25.1709  H     1 <0>         0.0000
@<TRIPOS>BOND
     1    1    2 ar
     2    1    6 ar
     3    2    7 ar
     4    3    4 ar
     5    3    6 ar
     6    4    5 1
     7    4    7 ar
     8    5    8 2
     9    5   10 1
    10    6   14 1
    11    7   15 1
    12    8   11 1
    13    8   15 1
    14    9   12 1
    15    9   17 1
    16    9   18 2
    17   10   12 1
    18   11   16 1
    19   12   16 1
    20   13   19 1
    21   14   19 1
    22    1   20 1
    23    2   21 1
    24    3   22 1
    25   10   23 1
    26   10   24 1
    27   11   25 1
    28   11   26 1
    29   12   27 1
    30   13   28 1
    31   13   29 1
    32   13   30 1
    33   14   31 1
    34   14   32 1
    35   16   33 1
    36   16   34 1
@<TRIPOS>PROPERTY_DATA
  Total_Score	| 10.4142
  Crash		| -1.1906
  Polar		| 7.8363

@<TRIPOS>MOLECULE
ligand_hydrophobic29_001
   34    36     0     0     0
SMALL
USER_CHARGES

@<TRIPOS>ATOM
1    C1      -27.0143  -14.4958   27.6807  C.ar  1 <0>        -0.0544
2    C2      -28.3072  -14.8378   27.2339  C.ar  1 <0>        -0.0375
3    C3      -27.4887  -12.1284   27.3416  C.ar  1 <0>        -0.0469
4    C4      -28.7961  -12.4733   26.9587  C.ar  1 <0>         0.0035
5    C5      -29.8894  -11.6990   26.6071  C.2   1 <0>        -0.0159
6    C6      -26.5946  -13.1385   27.7653  C.ar  1 <0>        -0.0212
7    C7      -29.1970  -13.8029   26.8956  C.ar  1 <0>         0.0470
8    C8      -30.9005  -12.5986   26.2785  C.2   1 <0>         0.0343
9    C9      -31.6083   -8.3902   25.9115  C.2   1 <0>         0.3223
10   C10     -30.0291  -10.2296   26.5486  C.3   1 <0>         0.0005
11   C11     -32.2180  -12.1498   25.7882  C.3   1 <0>         0.0374
12   C12     -31.5190   -9.7923   26.3713  C.3   1 <0>         0.1101
13   C13     -25.7053  -10.5613   29.3494  C.3   1 <0>         0.0369
14   C14     -25.2542  -12.7538   28.2771  C.3   1 <0>         0.0723
15   N1      -30.4723  -13.8620   26.4710  N.2   1 <0>        -0.3567
16   N2      -32.2138  -10.7080   25.4206  N.4   1 <0>        -0.2984
17   O1      -32.4690   -8.0209   24.9352  O.co2 1 <0>        -0.4795
18   O2      -30.8448   -7.4323   26.4893  O.co2 1 <0>        -0.2492
19   O3      -25.2849  -11.9334   29.4663  O.3   1 <0>        -0.3784
20   H1      -26.3703  -15.2451   27.9383  H     1 <0>         0.0622
21   H2      -28.5891  -15.8174   27.1536  H     1 <0>         0.0638
22   H3      -27.1977  -11.1361   27.3583  H     1 <0>         0.0628
23   H4      -29.6409   -9.7995   27.4754  H     1 <0>         0.0334
24   H5      -29.4163   -9.8700   25.7180  H     1 <0>         0.0334
25   H6      -32.4776  -12.7217   24.8954  H     1 <0>         0.0488
26   H7      -32.9742  -12.3369   26.5526  H     1 <0>         0.0488
27   H8      -32.0269   -9.8487   27.3401  H     1 <0>         0.0579
28   H9      -25.4870  -10.0417   30.2823  H     1 <0>         0.0524
29   H10     -26.7881  -10.5095   29.1467  H     1 <0>         0.0524
30   H11     -25.1856  -10.0420   28.5452  H     1 <0>         0.0524
31   H12     -24.6977  -13.6465   28.5586  H     1 <0>         0.0610
32   H13     -24.6844  -12.2691   27.4822  H     1 <0>         0.0610
33   H14     -31.7326  -10.6193   24.5215  H     1 <0>         0.1231
34   H15     -33.1836  -10.3997   25.3041  H     1 <0>         0.0000
@<TRIPOS>BOND
     1    1    2 ar
     2    1    6 ar
     3    2    7 ar
     4    3    4 ar
     5    3    6 ar
     6    4    5 1
     7    4    7 ar
     8    5    8 2
     9    5   10 1
    10    6   14 1
    11    7   15 1
    12    8   11 1
    13    8   15 1
    14    9   12 1
    15    9   17 1
    16    9   18 2
    17   10   12 1
    18   11   16 1
    19   12   16 1
    20   13   19 1
    21   14   19 1
    22    1   20 1
    23    2   21 1
    24    3   22 1
    25   10   23 1
    26   10   24 1
    27   11   25 1
    28   11   26 1
    29   12   27 1
    30   13   28 1
    31   13   29 1
    32   13   30 1
    33   14   31 1
    34   14   32 1
    35   16   33 1
    36   16   34 1
@<TRIPOS>PROPERTY_DATA
  Total_Score	| 9.3641
  Crash		| -1.2363
  Polar		| 6.5398

@<TRIPOS>MOLECULE
ligand_hydrophobic29_002
   34    36     0     0     0
SMALL
USER_CHARGES

@<TRIPOS>ATOM
1    C1      -27.1076  -14.7863   27.7675  C.ar  1 <0>        -0.0544
2    C2      -28.3842  -15.0353   27.2188  C.ar  1 <0>        -0.0375
3    C3      -27.5191  -12.3737   27.6909  C.ar  1 <0>        -0.0469
4    C4      -28.7940  -12.6306   27.1466  C.ar  1 <0>         0.0035
5    C5      -29.8495  -11.8156   26.7424  C.2   1 <0>        -0.0159
6    C6      -26.6670  -13.4612   28.0234  C.ar  1 <0>        -0.0212
7    C7      -29.2179  -13.9429   26.9337  C.ar  1 <0>         0.0470
8    C8      -30.8551  -12.6700   26.2965  C.2   1 <0>         0.0343
9    C9      -31.4872   -8.4551   25.9874  C.2   1 <0>         0.3223
10   C10     -29.9609  -10.3407   26.6857  C.3   1 <0>         0.0005
11   C11     -32.1437  -12.1914   25.7575  C.3   1 <0>         0.0374
12   C12     -31.4328   -9.8639   26.4253  C.3   1 <0>         0.1101
13   C13     -25.5935  -15.0334   30.3247  C.3   1 <0>         0.0369
14   C14     -25.3304  -13.2520   28.6388  C.3   1 <0>         0.0723
15   N1      -30.4576  -13.9499   26.4167  N.2   1 <0>        -0.3567
16   N2      -32.1056  -10.7463   25.4280  N.4   1 <0>        -0.2984
17   O1      -30.7190   -7.5119   26.5825  O.co2 1 <0>        -0.4795
18   O2      -32.3534   -8.0496   25.0278  O.co2 1 <0>        -0.2492
19   O3      -25.2510  -13.6648   30.0200  O.3   1 <0>        -0.3784
20   H1      -26.5019  -15.5821   27.9665  H     1 <0>         0.0622
21   H2      -28.6883  -15.9932   27.0242  H     1 <0>         0.0638
22   H3      -27.2210  -11.4080   27.8465  H     1 <0>         0.0628
23   H4      -29.6104   -9.9245   27.6350  H     1 <0>         0.0334
24   H5      -29.2994   -9.9867   25.8882  H     1 <0>         0.0334
25   H6      -32.3749  -12.7407   24.8397  H     1 <0>         0.0488
26   H7      -32.9360  -12.3882   26.4835  H     1 <0>         0.0488
27   H8      -31.9870   -9.9307   27.3671  H     1 <0>         0.0579
28   H9      -25.2527  -15.2539   31.3473  H     1 <0>         0.0524
29   H10     -25.1002  -15.7391   29.6548  H     1 <0>         0.0524
30   H11     -26.6718  -15.1794   30.2758  H     1 <0>         0.0524
31   H12     -24.5566  -13.7512   28.0518  H     1 <0>         0.0610
32   H13     -25.0793  -12.1907   28.6306  H     1 <0>         0.0610
33   H14     -31.6040  -10.6433   24.5435  H     1 <0>         0.1231
34   H15     -33.0684  -10.4229   25.2965  H     1 <0>         0.0000
@<TRIPOS>BOND
     1    1    2 ar
     2    1    6 ar
     3    2    7 ar
     4    3    4 ar
     5    3    6 ar
     6    4    5 1
     7    4    7 ar
     8    5    8 2
     9    5   10 1
    10    6   14 1
    11    7   15 1
    12    8   11 1
    13    8   15 1
    14    9   12 1
    15    9   17 1
    16    9   18 2
    17   10   12 1
    18   11   16 1
    19   12   16 1
    20   13   19 1
    21   14   19 1
    22    1   20 1
    23    2   21 1
    24    3   22 1
    25   10   23 1
    26   10   24 1
    27   11   25 1
    28   11   26 1
    29   12   27 1
    30   13   28 1
    31   13   29 1
    32   13   30 1
    33   14   31 1
    34   14   32 1
    35   16   33 1
    36   16   34 1
@<TRIPOS>PROPERTY_DATA
  Total_Score	| 8.9425
  Crash		| -0.7432
  Polar		| 6.5502

@<TRIPOS>MOLECULE
ligand_uncharged28_000
   34    36     0     0     0
SMALL
USER_CHARGES

@<TRIPOS>ATOM
1    C1      -30.3170  -16.0197   25.9433  C.ar  1 <0>        -0.0360
2    C2      -29.4016  -16.2382   26.9874  C.ar  1 <0>        -0.0385
3    C3      -29.4055  -13.8572   27.5396  C.ar  1 <0>        -0.0310
4    C4      -30.3258  -13.6470   26.4969  C.ar  1 <0>         0.0049
5    C5      -30.9417  -12.5037   26.0033  C.2   1 <0>        -0.0158
6    C6      -30.7604  -14.7115   25.7040  C.ar  1 <0>         0.0471
7    C7      -28.9402  -15.1743   27.7983  C.ar  1 <0>         0.0341
8    C8      -31.7474  -12.9412   24.9529  C.2   1 <0>         0.0343
9    C9      -31.7705   -8.7759   25.8895  C.2   1 <0>         0.3223
10   C10     -27.6400  -14.8688   29.8501  C.2   1 <0>         0.2141
11   C11     -30.8484  -11.0931   26.4346  C.3   1 <0>         0.0005
12   C12     -32.6185  -12.0475   24.1796  C.3   1 <0>         0.0374
13   C13     -31.4806  -10.1309   25.3750  C.3   1 <0>         0.1101
14   C14     -26.6047  -15.4884   30.6370  C.3   1 <0>         0.0125
15   N1      -31.6024  -14.2646   24.7590  N.2   1 <0>        -0.3567
16   N2      -28.0228  -15.5100   28.7559  N.am  1 <0>        -0.2857
17   N3      -32.7249  -10.6924   24.7698  N.4   1 <0>        -0.2984
18   O1      -31.1337   -8.2717   26.9705  O.co2 1 <0>        -0.4795
19   O2      -32.3814   -7.9018   25.0553  O.co2 1 <0>        -0.2492
20   O3      -28.1316  -13.8095   30.2291  O.2   1 <0>        -0.2758
21   H1      -30.6499  -16.7988   25.3731  H     1 <0>         0.0639
22   H2      -29.0805  -17.1914   27.1537  H     1 <0>         0.0637
23   H3      -29.0698  -13.0568   28.0776  H     1 <0>         0.0643
24   H4      -31.3508  -10.9958   27.3979  H     1 <0>         0.0334
25   H5      -29.7983  -10.8175   26.5658  H     1 <0>         0.0334
26   H6      -32.2385  -11.9789   23.1597  H     1 <0>         0.0488
27   H7      -33.6258  -12.4678   24.1524  H     1 <0>         0.0488
28   H8      -30.7511  -10.0017   24.5737  H     1 <0>         0.0579
29   H9      -25.7013  -15.5893   30.0321  H     1 <0>         0.0323
30   H10     -26.9322  -16.4805   30.9476  H     1 <0>         0.0323
31   H11     -26.3683  -14.9028   31.5267  H     1 <0>         0.0323
32   H12     -27.6129  -16.3831   28.6387  H     1 <0>         0.1548
33   H13     -33.0346  -10.0756   24.0148  H     1 <0>         0.1231
34   H14     -33.4533  -10.7116   25.4863  H     1 <0>         0.0000
@<TRIPOS>BOND
     1    1    2 ar
     2    1    6 ar
     3    2    7 ar
     4    3    4 ar
     5    3    7 ar
     6    4    5 1
     7    4    6 ar
     8    5    8 2
     9    5   11 1
    10    6   15 1
    11    7   16 1
    12    8   12 1
    13    8   15 1
    14    9   13 1
    15    9   18 1
    16    9   19 2
    17   10   14 1
    18   10   16 am
    19   10   20 2
    20   11   13 1
    21   12   17 1
    22   13   17 1
    23    1   21 1
    24    2   22 1
    25    3   23 1
    26   11   24 1
    27   11   25 1
    28   12   26 1
    29   12   27 1
    30   13   28 1
    31   14   29 1
    32   14   30 1
    33   14   31 1
    34   16   32 1
    35   17   33 1
    36   17   34 1
@<TRIPOS>PROPERTY_DATA
  Total_Score	| 7.2710
  Crash		| -2.7789
  Polar		| 5.0354

@<TRIPOS>MOLECULE
ligand_uncharged28_001
   34    36     0     0     0
SMALL
USER_CHARGES

@<TRIPOS>ATOM
1    C1      -30.2972  -16.0142   25.9180  C.ar  1 <0>        -0.0360
2    C2      -29.3715  -16.2256   26.9556  C.ar  1 <0>        -0.0385
3    C3      -29.4152  -13.8528   27.5307  C.ar  1 <0>        -0.0310
4    C4      -30.3387  -13.6496   26.4914  C.ar  1 <0>         0.0049
5    C5      -30.9758  -12.5134   26.0113  C.2   1 <0>        -0.0158
6    C6      -30.7640  -14.7121   25.6909  C.ar  1 <0>         0.0471
7    C7      -28.9238  -15.1620   27.7778  C.ar  1 <0>         0.0341
8    C8      -31.7781  -12.9491   24.9582  C.2   1 <0>         0.0343
9    C9      -31.8327   -8.7867   25.9304  C.2   1 <0>         0.3223
10   C10     -27.6103  -14.8503   29.8193  C.2   1 <0>         0.2141
11   C11     -30.8975  -11.1039   26.4549  C.3   1 <0>         0.0005
12   C12     -32.6501  -12.0499   24.1923  C.3   1 <0>         0.0374
13   C13     -31.5389  -10.1357   25.4066  C.3   1 <0>         0.1101
14   C14     -26.5770  -15.4740   30.6104  C.3   1 <0>         0.0125
15   N1      -31.6133  -14.2686   24.7512  N.2   1 <0>        -0.3567
16   N2      -28.0032  -15.4957   28.7301  N.am  1 <0>        -0.2857
17   N3      -32.7812  -10.7082   24.8104  N.4   1 <0>        -0.2984
18   O1      -32.4307   -7.8945   25.1107  O.co2 1 <0>        -0.4795
19   O2      -31.2217   -8.3024   27.0364  O.co2 1 <0>        -0.2492
20   O3      -28.0939  -13.7906   30.1981  O.2   1 <0>        -0.2758
21   H1      -30.6191  -16.7942   25.3423  H     1 <0>         0.0639
22   H2      -29.0270  -17.1736   27.1083  H     1 <0>         0.0637
23   H3      -29.0980  -13.0513   28.0747  H     1 <0>         0.0643
24   H4      -31.4064  -11.0226   27.4169  H     1 <0>         0.0334
25   H5      -29.8501  -10.8212   26.5982  H     1 <0>         0.0334
26   H6      -32.2581  -11.9565   23.1787  H     1 <0>         0.0488
27   H7      -33.6481  -12.4864   24.1429  H     1 <0>         0.0488
28   H8      -30.8150   -9.9956   24.6026  H     1 <0>         0.0579
29   H9      -25.6736  -15.5962   30.0097  H     1 <0>         0.0323
30   H10     -26.9141  -16.4568   30.9359  H     1 <0>         0.0323
31   H11     -26.3305  -14.8843   31.4942  H     1 <0>         0.0323
32   H12     -27.5967  -16.3696   28.6120  H     1 <0>         0.1548
33   H13     -33.1216  -10.0839   24.0736  H     1 <0>         0.1231
34   H14     -33.4916  -10.7639   25.5455  H     1 <0>         0.0000
@<TRIPOS>BOND
     1    1    2 ar
     2    1    6 ar
     3    2    7 ar
     4    3    4 ar
     5    3    7 ar
     6    4    5 1
     7    4    6 ar
     8    5    8 2
     9    5   11 1
    10    6   15 1
    11    7   16 1
    12    8   12 1
    13    8   15 1
    14    9   13 1
    15    9   18 1
    16    9   19 2
    17   10   14 1
    18   10   16 am
    19   10   20 2
    20   11   13 1
    21   12   17 1
    22   13   17 1
    23    1   21 1
    24    2   22 1
    25    3   23 1
    26   11   24 1
    27   11   25 1
    28   12   26 1
    29   12   27 1
    30   13   28 1
    31   14   29 1
    32   14   30 1
    33   14   31 1
    34   16   32 1
    35   17   33 1
    36   17   34 1
@<TRIPOS>PROPERTY_DATA
  Total_Score	| 7.0529
  Crash		| -2.8302
  Polar		| 4.9559

@<TRIPOS>MOLECULE
ligand_uncharged28_002
   34    36     0     0     0
SMALL
USER_CHARGES

@<TRIPOS>ATOM
1    C1      -30.1844  -16.0209   25.9213  C.ar  1 <0>        -0.0360
2    C2      -29.2196  -16.1935   26.9296  C.ar  1 <0>        -0.0385
3    C3      -29.3615  -13.8336   27.5312  C.ar  1 <0>        -0.0310
4    C4      -30.2988  -13.6640   26.4980  C.ar  1 <0>         0.0049
5    C5      -30.9542  -12.5393   26.0097  C.2   1 <0>        -0.0158
6    C6      -30.7156  -14.7378   25.7098  C.ar  1 <0>         0.0471
7    C7      -28.8114  -15.1187   27.7623  C.ar  1 <0>         0.0341
8    C8      -31.7861  -12.9932   24.9847  C.2   1 <0>         0.0343
9    C9      -31.7777   -8.7928   25.8894  C.2   1 <0>         0.3223
10   C10     -27.5575  -14.8204   29.8420  C.2   1 <0>         0.2141
11   C11     -30.8065  -11.1184   26.3931  C.3   1 <0>         0.0005
12   C12     -32.6753  -12.0932   24.2346  C.3   1 <0>         0.0374
13   C13     -31.5043  -10.1595   25.3705  C.3   1 <0>         0.1101
14   C14     -26.5541  -15.4394   30.6649  C.3   1 <0>         0.0125
15   N1      -31.5964  -14.3125   24.7867  N.2   1 <0>        -0.3567
16   N2      -27.8780  -15.4200   28.7163  N.am  1 <0>        -0.2857
17   N3      -32.7754  -10.7406   24.8457  N.4   1 <0>        -0.2984
18   O1      -31.1733   -8.3033   27.0031  O.co2 1 <0>        -0.4795
19   O2      -32.4351   -7.8962   25.1305  O.co2 1 <0>        -0.2492
20   O3      -28.1517  -13.8195   30.2696  O.2   1 <0>        -0.2758
21   H1      -30.4823  -16.8208   25.3572  H     1 <0>         0.0639
22   H2      -28.7975  -17.1166   27.0553  H     1 <0>         0.0637
23   H3      -29.0720  -13.0195   28.0762  H     1 <0>         0.0643
24   H4      -31.2148  -11.0185   27.3992  H     1 <0>         0.0334
25   H5      -29.7419  -10.8591   26.4395  H     1 <0>         0.0334
26   H6      -32.3191  -12.0025   23.2096  H     1 <0>         0.0488
27   H7      -33.6750  -12.5255   24.2135  H     1 <0>         0.0488
28   H8      -30.8209  -10.0540   24.5151  H     1 <0>         0.0579
29   H9      -25.6337  -15.5628   30.0931  H     1 <0>         0.0323
30   H10     -26.9036  -16.4244   30.9762  H     1 <0>         0.0323
31   H11     -26.3275  -14.8576   31.5567  H     1 <0>         0.0323
32   H12     -27.4030  -16.2517   28.5541  H     1 <0>         0.1548
33   H13     -33.1419  -10.1156   24.1296  H     1 <0>         0.1231
34   H14     -33.4530  -10.7814   25.6119  H     1 <0>         0.0000
@<TRIPOS>BOND
     1    1    2 ar
     2    1    6 ar
     3    2    7 ar
     4    3    4 ar
     5    3    7 ar
     6    4    5 1
     7    4    6 ar
     8    5    8 2
     9    5   11 1
    10    6   15 1
    11    7   16 1
    12    8   12 1
    13    8   15 1
    14    9   13 1
    15    9   18 1
    16    9   19 2
    17   10   14 1
    18   10   16 am
    19   10   20 2
    20   11   13 1
    21   12   17 1
    22   13   17 1
    23    1   21 1
    24    2   22 1
    25    3   23 1
    26   11   24 1
    27   11   25 1
    28   12   26 1
    29   12   27 1
    30   13   28 1
    31   14   29 1
    32   14   30 1
    33   14   31 1
    34   16   32 1
    35   17   33 1
    36   17   34 1
@<TRIPOS>PROPERTY_DATA
  Total_Score	| 7.0186
  Crash		| -2.8056
  Polar		| 5.0426

@<TRIPOS>MOLECULE
ligand_uncharged38_000
   40    43     0     0     0
SMALL
USER_CHARGES

@<TRIPOS>ATOM
1    C1      -29.0841  -15.9734   26.7015  C.ar  1 <0>        -0.0541
2    C2      -30.1632  -15.7889   25.8174  C.ar  1 <0>        -0.0374
3    C3      -29.0241  -13.5735   27.1625  C.ar  1 <0>        -0.0467
4    C4      -30.1093  -13.4044   26.2835  C.ar  1 <0>         0.0035
5    C5      -28.4692  -14.8684   27.3574  C.ar  1 <0>        -0.0182
6    C6      -30.8446  -12.3309   25.8904  C.2   1 <0>        -0.0159
7    C7      -30.6496  -14.4905   25.6054  C.ar  1 <0>         0.0470
8    C8      -31.7249  -12.7943   24.9817  C.cat 1 <0>         0.0343
9    C9      -31.7158   -8.6349   25.8041  C.2   1 <0>         0.3223
10   C10     -30.7063  -10.9287   26.2571  C.3   1 <0>         0.0005
11   C11     -32.7296  -11.9669   24.3565  C.3   1 <0>         0.0374
12   C12     -26.5342  -15.1728   30.7190  C.3   1 <0>        -0.0483
13   C13     -25.8820  -16.5363   30.4045  C.3   1 <0>        -0.0293
14   C14     -27.7152  -14.8822   29.7578  C.3   1 <0>        -0.0224
15   C15     -25.4926  -16.5906   28.9064  C.3   1 <0>         0.0485
16   C16     -27.2894  -15.0432   28.2671  C.3   1 <0>         0.0836
17   C17     -31.9706  -10.0912   25.8722  C.3   1 <0>         0.1101
18   N1      -31.5890  -14.0667   24.8005  N.2   1 <0>        -0.3567
19   N2      -32.4837  -10.5181   24.5492  N.3   1 <0>        -0.2984
20   O1      -30.9364   -8.0354   26.7385  O.co2 1 <0>        -0.4795
21   O2      -32.5845   -7.8391   25.1412  O.co2 1 <0>        -0.2492
22   O3      -26.6354  -16.3250   28.0633  O.3   1 <0>        -0.3720
23   H1      -28.7471  -16.9211   26.8539  H     1 <0>         0.0622
24   H2      -30.5841  -16.5872   25.3356  H     1 <0>         0.0638
25   H3      -28.6240  -12.7570   27.6337  H     1 <0>         0.0628
26   H4      -30.5439  -10.8454   27.3366  H     1 <0>         0.0334
27   H5      -29.8219  -10.5336   25.7468  H     1 <0>         0.0334
28   H6      -32.7192  -12.1456   23.2804  H     1 <0>         0.0488
29   H7      -33.7161  -12.2334   24.7482  H     1 <0>         0.0488
30   H8      -26.8987  -15.1631   31.7497  H     1 <0>         0.0267
31   H9      -25.7842  -14.3810   30.6147  H     1 <0>         0.0267
32   H10     -24.9950  -16.6707   31.0279  H     1 <0>         0.0287
33   H11     -26.5897  -17.3403   30.6262  H     1 <0>         0.0287
34   H12     -28.5306  -15.5785   29.9861  H     1 <0>         0.0293
35   H13     -28.0771  -13.8601   29.9376  H     1 <0>         0.0293
36   H14     -24.6860  -15.8801   28.6993  H     1 <0>         0.0560
37   H15     -25.1220  -17.5949   28.6833  H     1 <0>         0.0560
38   H16     -26.5668  -14.2599   28.0170  H     1 <0>         0.0646
39   H17     -32.7549  -10.2580   26.6195  H     1 <0>         0.0579
40   H18     -31.8234  -10.2037   23.8401  H     1 <0>         0.1231
@<TRIPOS>BOND
     1    1    2 ar
     2    1    5 ar
     3    2    7 ar
     4    3    4 ar
     5    3    5 ar
     6    4    6 2
     7    4    7 ar
     8    5   16 1
     9    6    8 1
    10    6   10 1
    11    7   18 2
    12    8   11 1
    13    8   18 1
    14    9   17 1
    15    9   20 1
    16    9   21 2
    17   10   17 1
    18   11   19 1
    19   12   13 1
    20   12   14 1
    21   13   15 1
    22   14   16 1
    23   15   22 1
    24   16   22 1
    25   17   19 1
    26    1   23 1
    27    2   24 1
    28    3   25 1
    29   10   26 1
    30   10   27 1
    31   11   28 1
    32   11   29 1
    33   12   30 1
    34   12   31 1
    35   13   32 1
    36   13   33 1
    37   14   34 1
    38   14   35 1
    39   15   36 1
    40   15   37 1
    41   16   38 1
    42   17   39 1
    43   19   40 1
@<TRIPOS>PROPERTY_DATA
  Total_Score	| 9.0347
  Crash		| -2.1708
  Polar		| 4.6708

@<TRIPOS>MOLECULE
ligand_uncharged38_001
   40    43     0     0     0
SMALL
USER_CHARGES

@<TRIPOS>ATOM
1    C1      -29.1425  -15.9298   26.6811  C.ar  1 <0>        -0.0541
2    C2      -30.2242  -15.7395   25.7980  C.ar  1 <0>        -0.0374
3    C3      -29.0805  -13.5364   27.1648  C.ar  1 <0>        -0.0467
4    C4      -30.1652  -13.3565   26.2831  C.ar  1 <0>         0.0035
5    C5      -28.5305  -14.8341   27.3514  C.ar  1 <0>        -0.0182
6    C6      -30.8911  -12.2777   25.8811  C.2   1 <0>        -0.0159
7    C7      -30.7029  -14.4380   25.5907  C.ar  1 <0>         0.0470
8    C8      -31.7676  -12.7368   24.9639  C.cat 1 <0>         0.0343
9    C9      -31.7404   -8.5824   25.8213  C.2   1 <0>         0.3223
10   C10     -30.7457  -10.8753   26.2426  C.3   1 <0>         0.0005
11   C11     -32.7975  -11.9102   24.3719  C.3   1 <0>         0.0374
12   C12     -26.5825  -15.1364   30.7001  C.3   1 <0>        -0.0483
13   C13     -25.9130  -16.4929   30.3845  C.3   1 <0>        -0.0293
14   C14     -27.7698  -14.8642   29.7440  C.3   1 <0>        -0.0224
15   C15     -25.5256  -16.5396   28.8887  C.3   1 <0>         0.0485
16   C16     -27.3457  -15.0148   28.2514  C.3   1 <0>         0.0836
17   C17     -32.0116  -10.0350   25.8700  C.3   1 <0>         0.1101
18   N1      -31.6389  -14.0107   24.7858  N.2   1 <0>        -0.3567
19   N2      -32.5447  -10.4595   24.5514  N.3   1 <0>        -0.2984
20   O1      -32.5626   -7.7703   25.1194  O.co2 1 <0>        -0.4795
21   O2      -30.9785   -8.0113   26.7824  O.co2 1 <0>        -0.2492
22   O3      -26.6796  -16.2911   28.0505  O.3   1 <0>        -0.3720
23   H1      -28.8090  -16.8847   26.8200  H     1 <0>         0.0622
24   H2      -30.6507  -16.5349   25.3196  H     1 <0>         0.0638
25   H3      -28.6850  -12.7258   27.6478  H     1 <0>         0.0628
26   H4      -30.5788  -10.7975   27.3199  H     1 <0>         0.0334
27   H5      -29.8624  -10.4811   25.7286  H     1 <0>         0.0334
28   H6      -32.8176  -12.0926   23.2994  H     1 <0>         0.0488
29   H7      -33.7704  -12.1740   24.7947  H     1 <0>         0.0488
30   H8      -26.9358  -15.1290   31.7344  H     1 <0>         0.0267
31   H9      -25.8404  -14.3413   30.5879  H     1 <0>         0.0267
32   H10     -25.0247  -16.6235   31.0094  H     1 <0>         0.0287
33   H11     -26.6119  -17.3043   30.6055  H     1 <0>         0.0287
34   H12     -28.5687  -15.5748   29.9725  H     1 <0>         0.0293
35   H13     -28.1447  -13.8548   29.9307  H     1 <0>         0.0293
36   H14     -24.7301  -15.8164   28.6822  H     1 <0>         0.0560
37   H15     -25.1324  -17.5310   28.6633  H     1 <0>         0.0560
38   H16     -26.6250  -14.2251   28.0048  H     1 <0>         0.0646
39   H17     -32.7887  -10.2008   26.6212  H     1 <0>         0.0579
40   H18     -31.8985  -10.1477   23.8277  H     1 <0>         0.1231
@<TRIPOS>BOND
     1    1    2 ar
     2    1    5 ar
     3    2    7 ar
     4    3    4 ar
     5    3    5 ar
     6    4    6 2
     7    4    7 ar
     8    5   16 1
     9    6    8 1
    10    6   10 1
    11    7   18 2
    12    8   11 1
    13    8   18 1
    14    9   17 1
    15    9   20 1
    16    9   21 2
    17   10   17 1
    18   11   19 1
    19   12   13 1
    20   12   14 1
    21   13   15 1
    22   14   16 1
    23   15   22 1
    24   16   22 1
    25   17   19 1
    26    1   23 1
    27    2   24 1
    28    3   25 1
    29   10   26 1
    30   10   27 1
    31   11   28 1
    32   11   29 1
    33   12   30 1
    34   12   31 1
    35   13   32 1
    36   13   33 1
    37   14   34 1
    38   14   35 1
    39   15   36 1
    40   15   37 1
    41   16   38 1
    42   17   39 1
    43   19   40 1
@<TRIPOS>PROPERTY_DATA
  Total_Score	| 8.9380
  Crash		| -2.0855
  Polar		| 4.6163

@<TRIPOS>MOLECULE
ligand_uncharged38_002
   40    43     0     0     0
SMALL
USER_CHARGES

@<TRIPOS>ATOM
1    C1      -29.3160  -15.7061   26.9021  C.ar  1 <0>        -0.0541
2    C2      -30.2509  -15.4979   25.8684  C.ar  1 <0>        -0.0374
3    C3      -29.3919  -13.3470   27.5016  C.ar  1 <0>        -0.0467
4    C4      -30.3383  -13.1400   26.4873  C.ar  1 <0>         0.0035
5    C5      -28.8828  -14.6540   27.7400  C.ar  1 <0>        -0.0182
6    C6      -31.0279  -12.0705   26.0417  C.2   1 <0>        -0.0159
7    C7      -30.7609  -14.1998   25.6705  C.ar  1 <0>         0.0470
8    C8      -31.7825  -12.4974   25.0200  C.cat 1 <0>         0.0343
9    C9      -31.9471   -8.3808   25.9042  C.2   1 <0>         0.3223
10   C10     -30.9332  -10.6753   26.4740  C.3   1 <0>         0.0005
11   C11     -32.7225  -11.6441   24.3078  C.3   1 <0>         0.0374
12   C12     -26.5670  -16.2601   30.4963  C.3   1 <0>        -0.0483
13   C13     -25.2542  -15.7404   29.8843  C.3   1 <0>        -0.0293
14   C14     -27.7152  -16.2414   29.4650  C.3   1 <0>        -0.0224
15   C15     -25.4810  -14.3451   29.2393  C.3   1 <0>         0.0485
16   C16     -27.8518  -14.8099   28.8267  C.3   1 <0>         0.0836
17   C17     -32.1434   -9.8275   25.9509  C.3   1 <0>         0.1101
18   N1      -31.6188  -13.7555   24.7896  N.2   1 <0>        -0.3567
19   N2      -32.4787  -10.2119   24.5719  N.3   1 <0>        -0.2984
20   O1      -32.6525   -7.6459   25.0102  O.co2 1 <0>        -0.4795
21   O2      -30.9328   -7.7456   26.5846  O.co2 1 <0>        -0.2492
22   O3      -26.5787  -14.3880   28.2903  O.3   1 <0>        -0.3720
23   H1      -28.9768  -16.6645   27.0044  H     1 <0>         0.0622
24   H2      -30.5429  -16.2788   25.2774  H     1 <0>         0.0638
25   H3      -29.0916  -12.5469   28.0604  H     1 <0>         0.0628
26   H4      -30.8882  -10.6190   27.5622  H     1 <0>         0.0334
27   H5      -29.9934  -10.2744   26.0792  H     1 <0>         0.0334
28   H6      -32.6125  -11.7788   23.2373  H     1 <0>         0.0488
29   H7      -33.7430  -11.8914   24.5894  H     1 <0>         0.0488
30   H8      -26.4176  -17.2931   30.8485  H     1 <0>         0.0267
31   H9      -26.8493  -15.6389   31.3599  H     1 <0>         0.0267
32   H10     -24.4956  -15.6639   30.6639  H     1 <0>         0.0287
33   H11     -24.9089  -16.4398   29.1202  H     1 <0>         0.0287
34   H12     -27.4598  -16.9758   28.6969  H     1 <0>         0.0293
35   H13     -28.6601  -16.5367   29.9319  H     1 <0>         0.0293
36   H14     -25.6808  -13.5971   30.0086  H     1 <0>         0.0560
37   H15     -24.5857  -14.0541   28.7023  H     1 <0>         0.0560
38   H16     -28.1318  -14.1427   29.6631  H     1 <0>         0.0646
39   H17     -33.0032  -10.0328   26.5956  H     1 <0>         0.0579
40   H18     -31.7027   -9.9132   23.9850  H     1 <0>         0.1231
@<TRIPOS>BOND
     1    1    2 ar
     2    1    5 ar
     3    2    7 ar
     4    3    4 ar
     5    3    5 ar
     6    4    6 2
     7    4    7 ar
     8    5   16 1
     9    6    8 1
    10    6   10 1
    11    7   18 2
    12    8   11 1
    13    8   18 1
    14    9   17 1
    15    9   20 1
    16    9   21 2
    17   10   17 1
    18   11   19 1
    19   12   13 1
    20   12   14 1
    21   13   15 1
    22   14   16 1
    23   15   22 1
    24   16   22 1
    25   17   19 1
    26    1   23 1
    27    2   24 1
    28    3   25 1
    29   10   26 1
    30   10   27 1
    31   11   28 1
    32   11   29 1
    33   12   30 1
    34   12   31 1
    35   13   32 1
    36   13   33 1
    37   14   34 1
    38   14   35 1
    39   15   36 1
    40   15   37 1
    41   16   38 1
    42   17   39 1
    43   19   40 1
@<TRIPOS>PROPERTY_DATA
  Total_Score	| 8.5706
  Crash		| -2.6180
  Polar		| 4.9027

@<TRIPOS>MOLECULE
ligand_uncharged46_000
   50    53     0     0     0
SMALL
USER_CHARGES

@<TRIPOS>ATOM
1    C1      -26.6041  -10.4632   28.4641  C.ar  1 <0>        -0.0563
2    C2      -27.4533   -9.3996   28.0956  C.ar  1 <0>        -0.0375
3    C3      -28.2064  -12.0780   27.5674  C.ar  1 <0>        -0.0489
4    C4      -29.0348  -11.0124   27.1919  C.ar  1 <0>         0.0035
5    C5      -26.9643  -11.8133   28.2033  C.ar  1 <0>        -0.0436
6    C6      -30.2598  -10.9762   26.5414  C.2   1 <0>        -0.0159
7    C7      -28.6724   -9.6932   27.4585  C.ar  1 <0>         0.0470
8    C8      -30.5895   -9.6279   26.4287  C.2   1 <0>         0.0343
9    C9      -26.4371  -17.2597   30.0348  C.2   1 <0>         0.2136
10   C10     -33.2709  -12.4866   24.7209  C.2   1 <0>         0.3223
11   C11     -31.0811  -12.0740   25.9891  C.3   1 <0>         0.0005
12   C12     -31.8194   -9.1599   25.7681  C.3   1 <0>         0.0374
13   C13     -24.5981  -14.8843   27.5549  C.3   1 <0>        -0.0518
14   C14     -25.5172  -13.6582   27.3153  C.3   1 <0>        -0.0462
15   C15     -26.7602  -13.8561   29.6429  C.3   1 <0>        -0.0455
16   C16     -25.3274  -16.1376   28.1095  C.3   1 <0>        -0.0419
17   C17     -25.8210  -14.8516   30.3811  C.3   1 <0>        -0.0414
18   C18     -26.0524  -12.9381   28.5940  C.3   1 <0>        -0.0158
19   C19     -25.4968  -16.2033   29.6621  C.3   1 <0>         0.0354
20   C20     -32.5234  -11.5836   25.6256  C.3   1 <0>         0.1101
21   N1      -29.6376   -8.8713   27.0098  N.2   1 <0>        -0.3567
22   N2      -27.7256  -17.1618   29.7926  N.am  1 <0>        -0.3291
23   N3      -32.4970  -10.2333   24.9989  N.4   1 <0>        -0.2984
24   O1      -32.6690  -13.4959   24.0466  O.co2 1 <0>        -0.4795
25   O2      -26.0402  -18.2623   30.6108  O.2   1 <0>        -0.2757
26   O3      -34.6253  -12.4411   24.7075  O.co2 1 <0>        -0.2492
27   H1      -25.7187  -10.2441   28.9306  H     1 <0>         0.0621
28   H2      -27.1745   -8.4346   28.2805  H     1 <0>         0.0638
29   H3      -28.5083  -13.0328   27.3721  H     1 <0>         0.0627
30   H4      -30.5638  -12.4618   25.1064  H     1 <0>         0.0334
31   H5      -31.1557  -12.8787   26.7244  H     1 <0>         0.0334
32   H6      -32.4994   -8.7678   26.5210  H     1 <0>         0.0488
33   H7      -31.5679   -8.3577   25.0736  H     1 <0>         0.0488
34   H8      -24.1601  -15.1517   26.5871  H     1 <0>         0.0266
35   H9      -23.7800  -14.6040   28.2213  H     1 <0>         0.0266
36   H10     -24.9365  -12.9267   26.7415  H     1 <0>         0.0271
37   H11     -26.3465  -13.9738   26.6788  H     1 <0>         0.0271
38   H12     -27.5839  -14.3993   29.1764  H     1 <0>         0.0271
39   H13     -27.1986  -13.2031   30.4067  H     1 <0>         0.0271
40   H14     -26.2949  -16.2316   27.6031  H     1 <0>         0.0272
41   H15     -24.7362  -17.0092   27.8156  H     1 <0>         0.0272
42   H16     -24.8805  -14.3291   30.5961  H     1 <0>         0.0273
43   H17     -26.2661  -15.0697   31.3593  H     1 <0>         0.0273
44   H18     -25.1701  -12.5183   29.0911  H     1 <0>         0.0349
45   H19     -24.5134  -16.4947   30.0480  H     1 <0>         0.0394
46   H20     -33.0980  -11.5174   26.5544  H     1 <0>         0.0579
47   H21     -28.0825  -16.3845   29.3371  H     1 <0>         0.1449
48   H22     -28.3278  -17.8702   30.0702  H     1 <0>         0.1449
49   H23     -33.4652   -9.9448   24.8252  H     1 <0>         0.1231
50   H24     -32.0085  -10.3136   24.1044  H     1 <0>         0.0000
@<TRIPOS>BOND
     1    1    2 ar
     2    1    5 ar
     3    2    7 ar
     4    3    4 ar
     5    3    5 ar
     6    4    6 1
     7    4    7 ar
     8    5   18 1
     9    6    8 2
    10    6   11 1
    11    7   21 1
    12    8   12 1
    13    8   21 1
    14    9   19 1
    15    9   22 am
    16    9   25 2
    17   10   20 1
    18   10   24 1
    19   10   26 2
    20   11   20 1
    21   12   23 1
    22   13   14 1
    23   13   16 1
    24   14   18 1
    25   15   17 1
    26   15   18 1
    27   16   19 1
    28   17   19 1
    29   20   23 1
    30    1   27 1
    31    2   28 1
    32    3   29 1
    33   11   30 1
    34   11   31 1
    35   12   32 1
    36   12   33 1
    37   13   34 1
    38   13   35 1
    39   14   36 1
    40   14   37 1
    41   15   38 1
    42   15   39 1
    43   16   40 1
    44   16   41 1
    45   17   42 1
    46   17   43 1
    47   18   44 1
    48   19   45 1
    49   20   46 1
    50   22   47 1
    51   22   48 1
    52   23   49 1
    53   23   50 1
@<TRIPOS>PROPERTY_DATA
  Total_Score	| 6.2606
  Crash		| -4.6527
  Polar		| 3.0223

@<TRIPOS>MOLECULE
ligand_uncharged46_001
   50    53     0     0     0
SMALL
USER_CHARGES

@<TRIPOS>ATOM
1    C1      -29.4739  -15.7718   26.7116  C.ar  1 <0>        -0.0563
2    C2      -30.4697  -15.6301   25.7134  C.ar  1 <0>        -0.0375
3    C3      -29.7848  -13.4519   27.3719  C.ar  1 <0>        -0.0489
4    C4      -30.7289  -13.3174   26.3526  C.ar  1 <0>         0.0035
5    C5      -29.1040  -14.6803   27.5558  C.ar  1 <0>        -0.0436
6    C6      -31.4482  -12.2129   25.9482  C.2   1 <0>        -0.0159
7    C7      -31.0699  -14.3740   25.5156  C.ar  1 <0>         0.0470
8    C8      -32.1856  -12.6277   24.8421  C.2   1 <0>         0.0343
9    C9      -24.4186  -16.8353   30.3147  C.2   1 <0>         0.2136
10   C10     -31.7661   -8.4630   25.7479  C.2   1 <0>         0.3223
11   C11     -31.3960  -10.8227   26.4420  C.3   1 <0>         0.0005
12   C12     -32.9606  -11.6702   24.0333  C.3   1 <0>         0.0374
13   C13     -26.1041  -13.3811   29.7324  C.3   1 <0>        -0.0518
14   C14     -26.9523  -13.6741   28.4665  C.3   1 <0>        -0.0462
15   C15     -27.5179  -16.1386   29.0120  C.3   1 <0>        -0.0455
16   C16     -24.9773  -14.4169   29.9561  C.3   1 <0>        -0.0419
17   C17     -26.8510  -16.2694   30.4088  C.3   1 <0>        -0.0414
18   C18     -28.0986  -14.7242   28.6786  C.3   1 <0>        -0.0158
19   C19     -25.3843  -15.7751   30.6165  C.3   1 <0>         0.0354
20   C20     -31.6595   -9.8507   25.2622  C.3   1 <0>         0.1101
21   N1      -31.9495  -13.9332   24.5898  N.2   1 <0>        -0.3567
22   N2      -24.1654  -17.2394   29.0891  N.am  1 <0>        -0.3291
23   N3      -32.8982  -10.2734   24.5451  N.4   1 <0>        -0.2984
24   O1      -30.8253   -7.9749   26.5897  O.co2 1 <0>        -0.4795
25   O2      -23.7881  -17.3721   31.2152  O.2   1 <0>        -0.2757
26   O3      -32.4961   -7.5668   25.0512  O.co2 1 <0>        -0.2492
27   H1      -29.0283  -16.6884   26.8081  H     1 <0>         0.0621
28   H2      -30.7483  -16.4257   25.1385  H     1 <0>         0.0638
29   H3      -29.5941  -12.6462   27.9693  H     1 <0>         0.0627
30   H4      -32.1658  -10.6905   27.2088  H     1 <0>         0.0334
31   H5      -30.4173  -10.6166   26.8868  H     1 <0>         0.0334
32   H6      -32.5643  -11.6846   23.0186  H     1 <0>         0.0488
33   H7      -34.0044  -11.9877   24.0115  H     1 <0>         0.0488
34   H8      -25.6334  -12.4009   29.6128  H     1 <0>         0.0266
35   H9      -26.7525  -13.3160   30.6083  H     1 <0>         0.0266
36   H10     -27.3651  -12.7085   28.1653  H     1 <0>         0.0271
37   H11     -26.3094  -13.9972   27.6429  H     1 <0>         0.0271
38   H12     -26.8312  -16.4617   28.2265  H     1 <0>         0.0271
39   H13     -28.3537  -16.8423   29.0317  H     1 <0>         0.0271
40   H14     -24.4858  -14.5814   28.9928  H     1 <0>         0.0272
41   H15     -24.2314  -13.9466   30.6045  H     1 <0>         0.0272
42   H16     -27.4884  -15.7432   31.1244  H     1 <0>         0.0273
43   H17     -26.8958  -17.3263   30.6915  H     1 <0>         0.0273
44   H18     -28.6647  -14.4119   29.5638  H     1 <0>         0.0349
45   H19     -25.3211  -15.5930   31.6986  H     1 <0>         0.0394
46   H20     -30.8074   -9.8919   24.5744  H     1 <0>         0.0579
47   H21     -24.5955  -16.8146   28.3312  H     1 <0>         0.1449
48   H22     -23.4947  -17.9244   28.9376  H     1 <0>         0.1449
49   H23     -33.0216   -9.6626   23.7398  H     1 <0>         0.1231
50   H24     -33.6833  -10.1441   25.1857  H     1 <0>         0.0000
@<TRIPOS>BOND
     1    1    2 ar
     2    1    5 ar
     3    2    7 ar
     4    3    4 ar
     5    3    5 ar
     6    4    6 1
     7    4    7 ar
     8    5   18 1
     9    6    8 2
    10    6   11 1
    11    7   21 1
    12    8   12 1
    13    8   21 1
    14    9   19 1
    15    9   22 am
    16    9   25 2
    17   10   20 1
    18   10   24 1
    19   10   26 2
    20   11   20 1
    21   12   23 1
    22   13   14 1
    23   13   16 1
    24   14   18 1
    25   15   17 1
    26   15   18 1
    27   16   19 1
    28   17   19 1
    29   20   23 1
    30    1   27 1
    31    2   28 1
    32    3   29 1
    33   11   30 1
    34   11   31 1
    35   12   32 1
    36   12   33 1
    37   13   34 1
    38   13   35 1
    39   14   36 1
    40   14   37 1
    41   15   38 1
    42   15   39 1
    43   16   40 1
    44   16   41 1
    45   17   42 1
    46   17   43 1
    47   18   44 1
    48   19   45 1
    49   20   46 1
    50   22   47 1
    51   22   48 1
    52   23   49 1
    53   23   50 1
@<TRIPOS>PROPERTY_DATA
  Total_Score	| 6.2474
  Crash		| -6.7258
  Polar		| 3.4192

@<TRIPOS>MOLECULE
ligand_uncharged46_002
   50    53     0     0     0
SMALL
USER_CHARGES

@<TRIPOS>ATOM
1    C1      -29.2263  -15.9589   26.6011  C.ar  1 <0>        -0.0563
2    C2      -30.3183  -15.7824   25.7300  C.ar  1 <0>        -0.0375
3    C3      -29.2387  -13.5855   27.1647  C.ar  1 <0>        -0.0489
4    C4      -30.3198  -13.4202   26.2713  C.ar  1 <0>         0.0035
5    C5      -28.6765  -14.8710   27.3446  C.ar  1 <0>        -0.0436
6    C6      -31.0440  -12.3121   25.8785  C.2   1 <0>        -0.0159
7    C7      -30.8367  -14.4980   25.5595  C.ar  1 <0>         0.0470
8    C8      -31.9869  -12.7736   24.9577  C.2   1 <0>         0.0343
9    C9      -24.6715  -18.3873   29.5913  C.2   1 <0>         0.2136
10   C10     -31.8856   -8.5941   25.8578  C.2   1 <0>         0.3223
11   C11     -30.9227  -10.9000   26.2919  C.3   1 <0>         0.0005
12   C12     -32.9533  -11.8844   24.3067  C.3   1 <0>         0.0374
13   C13     -24.8973  -14.6573   28.4654  C.3   1 <0>        -0.0518
14   C14     -26.2051  -14.4988   27.6474  C.3   1 <0>        -0.0462
15   C15     -27.4028  -16.4909   28.8636  C.3   1 <0>        -0.0455
16   C16     -24.4041  -16.1277   28.5675  C.3   1 <0>        -0.0419
17   C17     -26.4881  -16.6699   30.0952  C.3   1 <0>        -0.0414
18   C18     -27.5209  -15.0339   28.3004  C.3   1 <0>        -0.0158
19   C19     -24.9812  -16.9591   29.7674  C.3   1 <0>         0.0354
20   C20     -31.6947   -9.9514   25.3167  C.3   1 <0>         0.1101
21   N1      -31.8152  -14.0856   24.7330  N.2   1 <0>        -0.3567
22   N2      -23.4303  -18.8020   29.4715  N.am  1 <0>        -0.3291
23   N3      -33.0128  -10.5462   24.9484  N.4   1 <0>        -0.2984
24   O1      -32.5664   -7.6930   25.1230  O.co2 1 <0>        -0.4795
25   O2      -25.5281  -19.2598   29.5990  O.2   1 <0>        -0.2757
26   O3      -31.2149   -8.1488   26.9451  O.co2 1 <0>        -0.2492
27   H1      -28.8497  -16.9003   26.6792  H     1 <0>         0.0621
28   H2      -30.7208  -16.5786   25.2314  H     1 <0>         0.0638
29   H3      -28.8728  -12.7712   27.6609  H     1 <0>         0.0627
30   H4      -31.3238  -10.8167   27.3049  H     1 <0>         0.0334
31   H5      -29.8651  -10.6209   26.3093  H     1 <0>         0.0334
32   H6      -32.6698  -11.7662   23.2600  H     1 <0>         0.0488
33   H7      -33.9482  -12.3283   24.3586  H     1 <0>         0.0488
34   H8      -24.1241  -14.0750   27.9599  H     1 <0>         0.0266
35   H9      -25.0161  -14.2236   29.4635  H     1 <0>         0.0266
36   H10     -26.3348  -13.4284   27.4505  H     1 <0>         0.0271
37   H11     -26.0586  -14.9785   26.6831  H     1 <0>         0.0271
38   H12     -27.0517  -17.1504   28.0627  H     1 <0>         0.0271
39   H13     -28.4058  -16.8242   29.1535  H     1 <0>         0.0271
40   H14     -24.6079  -16.6374   27.6210  H     1 <0>         0.0272
41   H15     -23.3107  -16.1200   28.6620  H     1 <0>         0.0272
42   H16     -26.5670  -15.7918   30.7326  H     1 <0>         0.0273
43   H17     -26.8827  -17.4932   30.6866  H     1 <0>         0.0273
44   H18     -27.7344  -14.4021   29.1682  H     1 <0>         0.0349
45   H19     -24.4362  -16.6501   30.6645  H     1 <0>         0.0394
46   H20     -31.1035   -9.8426   24.4037  H     1 <0>         0.0579
47   H21     -22.7015  -18.1589   29.4483  H     1 <0>         0.1449
48   H22     -23.2391  -19.7472   29.3970  H     1 <0>         0.1449
49   H23     -33.5150   -9.9396   24.2953  H     1 <0>         0.1231
50   H24     -33.5693  -10.6278   25.8036  H     1 <0>         0.0000
@<TRIPOS>BOND
     1    1    2 ar
     2    1    5 ar
     3    2    7 ar
     4    3    4 ar
     5    3    5 ar
     6    4    6 1
     7    4    7 ar
     8    5   18 1
     9    6    8 2
    10    6   11 1
    11    7   21 1
    12    8   12 1
    13    8   21 1
    14    9   19 1
    15    9   22 am
    16    9   25 2
    17   10   20 1
    18   10   24 1
    19   10   26 2
    20   11   20 1
    21   12   23 1
    22   13   14 1
    23   13   16 1
    24   14   18 1
    25   15   17 1
    26   15   18 1
    27   16   19 1
    28   17   19 1
    29   20   23 1
    30    1   27 1
    31    2   28 1
    32    3   29 1
    33   11   30 1
    34   11   31 1
    35   12   32 1
    36   12   33 1
    37   13   34 1
    38   13   35 1
    39   14   36 1
    40   14   37 1
    41   15   38 1
    42   15   39 1
    43   16   40 1
    44   16   41 1
    45   17   42 1
    46   17   43 1
    47   18   44 1
    48   19   45 1
    49   20   46 1
    50   22   47 1
    51   22   48 1
    52   23   49 1
    53   23   50 1
@<TRIPOS>PROPERTY_DATA
  Total_Score	| 6.1948
  Crash		| -5.6707
  Polar		| 4.7154

@<TRIPOS>MOLECULE
ligand_uncharged52_000
   56    59     0     0     0
SMALL
USER_CHARGES

@<TRIPOS>ATOM
1    C1      -28.9168  -15.9935   26.6515  C.ar  1 <0>        -0.0563
2    C2      -30.0274  -15.8241   25.8021  C.ar  1 <0>        -0.0375
3    C3      -28.7976  -13.5872   27.0321  C.ar  1 <0>        -0.0489
4    C4      -29.9330  -13.4270   26.2153  C.ar  1 <0>         0.0035
5    C5      -28.2584  -14.8857   27.2517  C.ar  1 <0>        -0.0436
6    C6      -30.7084  -12.3280   25.8593  C.2   1 <0>        -0.0159
7    C7      -30.5135  -14.5288   25.5833  C.ar  1 <0>         0.0470
8    C8      -31.7001  -12.8140   25.0050  C.2   1 <0>         0.0343
9    C9      -31.7370   -8.6604   26.0006  C.2   1 <0>         0.3223
10   C10     -24.9524  -19.4625   29.6640  C.2   1 <0>         0.2130
11   C11     -30.5855  -10.8998   26.2208  C.3   1 <0>         0.0005
12   C12     -32.7674  -11.9694   24.4526  C.3   1 <0>         0.0374
13   C13     -26.4915  -15.3690   30.7089  C.3   1 <0>        -0.0508
14   C14     -27.5904  -15.3055   29.6110  C.3   1 <0>        -0.0461
15   C15     -26.0627  -16.1600   27.6771  C.3   1 <0>        -0.0445
16   C16     -25.7413  -16.7232   30.7996  C.3   1 <0>        -0.0345
17   C17     -24.6893  -16.2184   28.3968  C.3   1 <0>        -0.0340
18   C18     -27.0729  -15.0675   28.1623  C.3   1 <0>        -0.0158
19   C19     -31.9272  -10.1284   25.9946  C.3   1 <0>         0.1101
20   C20     -24.6053  -16.9794   29.7588  C.3   1 <0>         0.0231
21   C21     -25.2289  -22.0009   29.7187  C.3   1 <0>        -0.0570
22   C22     -24.2993  -20.7624   29.7450  C.3   1 <0>         0.0211
23   N1      -31.5334  -14.1373   24.8044  N.2   1 <0>        -0.3567
24   N2      -24.2073  -18.3615   29.6329  N.am  1 <0>        -0.3125
25   N3      -32.5818  -10.5221   24.7161  N.4   1 <0>        -0.2984
26   O1      -31.0184   -8.0695   26.9811  O.co2 1 <0>        -0.4795
27   O2      -32.4131   -7.8580   25.1450  O.co2 1 <0>        -0.2492
28   O3      -26.1711  -19.3803   29.6589  O.2   1 <0>        -0.2758
29   H1      -28.6014  -16.9456   26.8176  H     1 <0>         0.0621
30   H2      -30.4829  -16.6320   25.3728  H     1 <0>         0.0638
31   H3      -28.3849  -12.7657   27.4784  H     1 <0>         0.0627
32   H4      -30.2996  -10.8215   27.2741  H     1 <0>         0.0334
33   H5      -29.7849  -10.4698   25.6106  H     1 <0>         0.0334
34   H6      -32.7874  -12.1005   23.3727  H     1 <0>         0.0488
35   H7      -33.7267  -12.2924   24.8650  H     1 <0>         0.0488
36   H8      -25.7764  -14.5571   30.5707  H     1 <0>         0.0266
37   H9      -26.9886  -15.2080   31.6693  H     1 <0>         0.0266
38   H10     -28.1975  -16.2169   29.6456  H     1 <0>         0.0271
39   H11     -28.2553  -14.4769   29.8760  H     1 <0>         0.0271
40   H12     -25.8493  -15.9619   26.6237  H     1 <0>         0.0272
41   H13     -26.5181  -17.1452   27.7367  H     1 <0>         0.0272
42   H14     -25.2878  -16.7883   31.7934  H     1 <0>         0.0283
43   H15     -26.4872  -17.5204   30.7481  H     1 <0>         0.0283
44   H16     -23.9650  -16.6761   27.7145  H     1 <0>         0.0283
45   H17     -24.3486  -15.1893   28.5358  H     1 <0>         0.0283
46   H18     -26.5156  -14.1250   28.1697  H     1 <0>         0.0349
47   H19     -32.6094  -10.3756   26.8137  H     1 <0>         0.0579
48   H20     -23.7248  -16.5424   30.2314  H     1 <0>         0.0498
49   H21     -25.9116  -21.9743   30.5710  H     1 <0>         0.0234
50   H22     -25.8191  -22.0359   28.8032  H     1 <0>         0.0234
51   H23     -24.6319  -22.9139   29.7820  H     1 <0>         0.0234
52   H24     -23.5858  -20.8468   28.9256  H     1 <0>         0.0356
53   H25     -23.7376  -20.8044   30.6787  H     1 <0>         0.0356
54   H26     -23.2464  -18.5168   29.5962  H     1 <0>         0.1490
55   H27     -32.0183  -10.1391   23.9541  H     1 <0>         0.1231
56   H28     -33.5064  -10.0844   24.6876  H     1 <0>         0.0000
@<TRIPOS>BOND
     1    1    2 ar
     2    1    5 ar
     3    2    7 ar
     4    3    4 ar
     5    3    5 ar
     6    4    6 1
     7    4    7 ar
     8    5   18 1
     9    6    8 2
    10    6   11 1
    11    7   23 1
    12    8   12 1
    13    8   23 1
    14    9   19 1
    15    9   26 1
    16    9   27 2
    17   10   22 1
    18   10   24 am
    19   10   28 2
    20   11   19 1
    21   12   25 1
    22   13   14 1
    23   13   16 1
    24   14   18 1
    25   15   17 1
    26   15   18 1
    27   16   20 1
    28   17   20 1
    29   19   25 1
    30   20   24 1
    31   21   22 1
    32    1   29 1
    33    2   30 1
    34    3   31 1
    35   11   32 1
    36   11   33 1
    37   12   34 1
    38   12   35 1
    39   13   36 1
    40   13   37 1
    41   14   38 1
    42   14   39 1
    43   15   40 1
    44   15   41 1
    45   16   42 1
    46   16   43 1
    47   17   44 1
    48   17   45 1
    49   18   46 1
    50   19   47 1
    51   20   48 1
    52   21   49 1
    53   21   50 1
    54   21   51 1
    55   22   52 1
    56   22   53 1
    57   24   54 1
    58   25   55 1
    59   25   56 1
@<TRIPOS>PROPERTY_DATA
  Total_Score	| 8.5030
  Crash		| -5.9333
  Polar		| 5.1879

@<TRIPOS>MOLECULE
ligand_uncharged52_001
   56    59     0     0     0
SMALL
USER_CHARGES

@<TRIPOS>ATOM
1    C1      -29.1249  -15.9940   26.4956  C.ar  1 <0>        -0.0563
2    C2      -30.2540  -15.8125   25.6778  C.ar  1 <0>        -0.0375
3    C3      -29.0330  -13.6079   26.9625  C.ar  1 <0>        -0.0489
4    C4      -30.1730  -13.4411   26.1583  C.ar  1 <0>         0.0035
5    C5      -28.4687  -14.9012   27.1361  C.ar  1 <0>        -0.0436
6    C6      -30.9356  -12.3249   25.8352  C.2   1 <0>        -0.0159
7    C7      -30.7592  -14.5204   25.5037  C.ar  1 <0>         0.0470
8    C8      -31.9281  -12.7718   24.9699  C.2   1 <0>         0.0343
9    C9      -31.8183   -8.6380   26.0435  C.2   1 <0>         0.3223
10   C10     -24.1907  -19.3546   29.6638  C.2   1 <0>         0.2130
11   C11     -30.7813  -10.9210   26.2585  C.3   1 <0>         0.0005
12   C12     -32.9597  -11.8812   24.4228  C.3   1 <0>         0.0374
13   C13     -26.4584  -14.8983   30.5199  C.3   1 <0>        -0.0508
14   C14     -27.6079  -14.8097   29.4853  C.3   1 <0>        -0.0461
15   C15     -26.4342  -16.3805   27.7605  C.3   1 <0>        -0.0445
16   C16     -25.9729  -16.3427   30.8149  C.3   1 <0>        -0.0345
17   C17     -25.0165  -16.4409   28.3724  C.3   1 <0>        -0.0340
18   C18     -27.2316  -15.0517   27.9852  C.3   1 <0>        -0.0158
19   C19     -32.0780  -10.0955   25.9856  C.3   1 <0>         0.1101
20   C20     -24.9599  -16.9958   29.8282  C.3   1 <0>         0.0231
21   C21     -25.9328  -21.2344   29.9006  C.3   1 <0>        -0.0570
22   C22     -24.4553  -20.7858   29.7649  C.3   1 <0>         0.0211
23   N1      -31.7765  -14.0959   24.7277  N.2   1 <0>        -0.3567
24   N2      -25.1226  -18.4273   29.8622  N.am  1 <0>        -0.3125
25   N3      -32.6901  -10.4420   24.6740  N.4   1 <0>        -0.2984
26   O1      -31.0672   -8.1085   27.0305  O.co2 1 <0>        -0.4795
27   O2      -32.3970   -7.7854   25.1710  O.co2 1 <0>        -0.2492
28   O3      -23.0391  -19.0240   29.4216  O.2   1 <0>        -0.2758
29   H1      -28.7888  -16.9509   26.6024  H     1 <0>         0.0621
30   H2      -30.7013  -16.6163   25.2308  H     1 <0>         0.0638
31   H3      -28.6178  -12.7880   27.4129  H     1 <0>         0.0627
32   H4      -30.5646  -10.8950   27.3315  H     1 <0>         0.0334
33   H5      -29.9267  -10.4984   25.7209  H     1 <0>         0.0334
34   H6      -33.0093  -12.0138   23.3437  H     1 <0>         0.0488
35   H7      -33.9239  -12.1525   24.8555  H     1 <0>         0.0488
36   H8      -25.6194  -14.2665   30.2206  H     1 <0>         0.0266
37   H9      -26.8483  -14.4966   31.4590  H     1 <0>         0.0266
38   H10     -28.4012  -15.5047   29.7730  H     1 <0>         0.0271
39   H11     -28.0240  -13.8020   29.5773  H     1 <0>         0.0271
40   H12     -26.3198  -16.5289   26.6816  H     1 <0>         0.0272
41   H13     -27.0245  -17.2150   28.1379  H     1 <0>         0.0272
42   H14     -25.4915  -16.3342   31.7958  H     1 <0>         0.0283
43   H15     -26.8611  -16.9731   30.9027  H     1 <0>         0.0283
44   H16     -24.3774  -17.0640   27.7420  H     1 <0>         0.0283
45   H17     -24.5713  -15.4440   28.3486  H     1 <0>         0.0283
46   H18     -26.5533  -14.2473   27.6810  H     1 <0>         0.0349
47   H19     -32.8045  -10.3293   26.7659  H     1 <0>         0.0579
48   H20     -23.9616  -16.7671   30.2107  H     1 <0>         0.0498
49   H21     -26.3732  -20.8399   30.8168  H     1 <0>         0.0234
50   H22     -26.5181  -20.8801   29.0500  H     1 <0>         0.0234
51   H23     -25.9878  -22.3200   29.9313  H     1 <0>         0.0234
52   H24     -24.0586  -21.2688   28.8691  H     1 <0>         0.0356
53   H25     -23.8982  -21.1789   30.6182  H     1 <0>         0.0356
54   H26     -25.9977  -18.7518   30.1333  H     1 <0>         0.1490
55   H27     -32.0631  -10.1054   23.9396  H     1 <0>         0.1231
56   H28     -33.5853   -9.9510   24.6026  H     1 <0>         0.0000
@<TRIPOS>BOND
     1    1    2 ar
     2    1    5 ar
     3    2    7 ar
     4    3    4 ar
     5    3    5 ar
     6    4    6 1
     7    4    7 ar
     8    5   18 1
     9    6    8 2
    10    6   11 1
    11    7   23 1
    12    8   12 1
    13    8   23 1
    14    9   19 1
    15    9   26 1
    16    9   27 2
    17   10   22 1
    18   10   24 am
    19   10   28 2
    20   11   19 1
    21   12   25 1
    22   13   14 1
    23   13   16 1
    24   14   18 1
    25   15   17 1
    26   15   18 1
    27   16   20 1
    28   17   20 1
    29   19   25 1
    30   20   24 1
    31   21   22 1
    32    1   29 1
    33    2   30 1
    34    3   31 1
    35   11   32 1
    36   11   33 1
    37   12   34 1
    38   12   35 1
    39   13   36 1
    40   13   37 1
    41   14   38 1
    42   14   39 1
    43   15   40 1
    44   15   41 1
    45   16   42 1
    46   16   43 1
    47   17   44 1
    48   17   45 1
    49   18   46 1
    50   19   47 1
    51   20   48 1
    52   21   49 1
    53   21   50 1
    54   21   51 1
    55   22   52 1
    56   22   53 1
    57   24   54 1
    58   25   55 1
    59   25   56 1
@<TRIPOS>PROPERTY_DATA
  Total_Score	| 7.2239
  Crash		| -6.4092
  Polar		| 4.5752

@<TRIPOS>MOLECULE
ligand_uncharged52_002
   56    59     0     0     0
SMALL
USER_CHARGES

@<TRIPOS>ATOM
1    C1      -29.2098  -15.9894   26.5291  C.ar  1 <0>        -0.0563
2    C2      -30.3232  -15.7860   25.6882  C.ar  1 <0>        -0.0375
3    C3      -29.0894  -13.6017   26.9921  C.ar  1 <0>        -0.0489
4    C4      -30.2260  -13.4138   26.1861  C.ar  1 <0>         0.0035
5    C5      -28.5476  -14.9068   27.1790  C.ar  1 <0>        -0.0436
6    C6      -30.9762  -12.2933   25.8585  C.2   1 <0>        -0.0159
7    C7      -30.8182  -14.4872   25.5211  C.ar  1 <0>         0.0470
8    C8      -31.9772  -12.7358   24.9968  C.2   1 <0>         0.0343
9    C9      -31.7784   -8.5769   25.9288  C.2   1 <0>         0.3223
10   C10     -24.0812  -19.3280   29.6409  C.2   1 <0>         0.2130
11   C11     -30.8072  -10.8807   26.2610  C.3   1 <0>         0.0005
12   C12     -33.0150  -11.8396   24.4658  C.3   1 <0>         0.0374
13   C13     -26.4406  -14.9361   30.5271  C.3   1 <0>        -0.0508
14   C14     -27.6166  -14.8130   29.5208  C.3   1 <0>        -0.0461
15   C15     -26.5388  -16.4312   27.7790  C.3   1 <0>        -0.0445
16   C16     -25.9803  -16.3909   30.7961  C.3   1 <0>        -0.0345
17   C17     -25.0856  -16.5040   28.3330  C.3   1 <0>        -0.0340
18   C18     -27.2964  -15.0774   28.0146  C.3   1 <0>        -0.0158
19   C19     -32.0789  -10.0270   25.9562  C.3   1 <0>         0.1101
20   C20     -24.9580  -17.0132   29.8001  C.3   1 <0>         0.0231
21   C21     -25.8175  -21.1418   29.9277  C.3   1 <0>        -0.0570
22   C22     -24.3283  -20.7522   29.8002  C.3   1 <0>         0.0211
23   N1      -31.8308  -14.0542   24.7499  N.2   1 <0>        -0.3567
24   N2      -25.0503  -18.4501   29.8810  N.am  1 <0>        -0.3125
25   N3      -32.6890  -10.4050   24.6542  N.4   1 <0>        -0.2984
26   O1      -32.5439   -7.7557   25.1778  O.co2 1 <0>        -0.4795
27   O2      -31.0388   -8.0078   26.9092  O.co2 1 <0>        -0.2492
28   O3      -22.9506  -18.9529   29.3567  O.2   1 <0>        -0.2758
29   H1      -28.8901  -16.9485   26.6551  H     1 <0>         0.0621
30   H2      -30.7684  -16.5735   25.2159  H     1 <0>         0.0638
31   H3      -28.6633  -12.7904   27.4425  H     1 <0>         0.0627
32   H4      -30.5967  -10.8348   27.3335  H     1 <0>         0.0334
33   H5      -29.9432  -10.4859   25.7171  H     1 <0>         0.0334
34   H6      -33.1309  -12.0045   23.3969  H     1 <0>         0.0488
35   H7      -33.9590  -12.0687   24.9636  H     1 <0>         0.0488
36   H8      -25.5938  -14.3207   30.2114  H     1 <0>         0.0266
37   H9      -26.8008  -14.5312   31.4759  H     1 <0>         0.0266
38   H10     -28.4253  -15.4773   29.8397  H     1 <0>         0.0271
39   H11     -27.9926  -13.7910   29.6203  H     1 <0>         0.0271
40   H12     -26.4715  -16.5923   26.7003  H     1 <0>         0.0272
41   H13     -27.1290  -17.2478   28.1941  H     1 <0>         0.0272
42   H14     -25.5143  -16.4114   31.7863  H     1 <0>         0.0283
43   H15     -26.8735  -17.0164   30.8466  H     1 <0>         0.0283
44   H16     -24.4994  -17.1614   27.6932  H     1 <0>         0.0283
45   H17     -24.6235  -15.5225   28.2497  H     1 <0>         0.0283
46   H18     -26.6057  -14.2953   27.6843  H     1 <0>         0.0349
47   H19     -32.8238  -10.2072   26.7378  H     1 <0>         0.0579
48   H20     -23.9648  -16.7267   30.1576  H     1 <0>         0.0498
49   H21     -26.2804  -20.6361   30.7763  H     1 <0>         0.0234
50   H22     -26.3595  -20.8849   29.0188  H     1 <0>         0.0234
51   H23     -25.9042  -22.2179   30.0819  H     1 <0>         0.0234
52   H24     -23.8951  -21.3132   28.9661  H     1 <0>         0.0356
53   H25     -23.8214  -21.0794   30.7041  H     1 <0>         0.0356
54   H26     -25.9146  -18.8145   30.1297  H     1 <0>         0.1490
55   H27     -32.0385  -10.1249   23.9158  H     1 <0>         0.1231
56   H28     -33.5626   -9.8859   24.5450  H     1 <0>         0.0000
@<TRIPOS>BOND
     1    1    2 ar
     2    1    5 ar
     3    2    7 ar
     4    3    4 ar
     5    3    5 ar
     6    4    6 1
     7    4    7 ar
     8    5   18 1
     9    6    8 2
    10    6   11 1
    11    7   23 1
    12    8   12 1
    13    8   23 1
    14    9   19 1
    15    9   26 1
    16    9   27 2
    17   10   22 1
    18   10   24 am
    19   10   28 2
    20   11   19 1
    21   12   25 1
    22   13   14 1
    23   13   16 1
    24   14   18 1
    25   15   17 1
    26   15   18 1
    27   16   20 1
    28   17   20 1
    29   19   25 1
    30   20   24 1
    31   21   22 1
    32    1   29 1
    33    2   30 1
    34    3   31 1
    35   11   32 1
    36   11   33 1
    37   12   34 1
    38   12   35 1
    39   13   36 1
    40   13   37 1
    41   14   38 1
    42   14   39 1
    43   15   40 1
    44   15   41 1
    45   16   42 1
    46   16   43 1
    47   17   44 1
    48   17   45 1
    49   18   46 1
    50   19   47 1
    51   20   48 1
    52   21   49 1
    53   21   50 1
    54   21   51 1
    55   22   52 1
    56   22   53 1
    57   24   54 1
    58   25   55 1
    59   25   56 1
@<TRIPOS>PROPERTY_DATA
  Total_Score	| 5.8370
  Crash		| -7.3649
  Polar		| 4.7541

@<TRIPOS>MOLECULE
ligand_uncharged59_000
   32    34     0     0     0
SMALL
USER_CHARGES

@<TRIPOS>ATOM
1    C1      -28.7450  -15.0403   27.0501  C.ar  1 <0>        -0.0359
2    C2      -27.4373  -14.8225   27.5326  C.ar  1 <0>        -0.0334
3    C3      -27.7476  -12.3971   27.3499  C.ar  1 <0>        -0.0259
4    C4      -29.0517  -12.6295   26.8907  C.ar  1 <0>         0.0050
5    C5      -30.0891  -11.7820   26.5314  C.2   1 <0>        -0.0158
6    C6      -29.5396  -13.9256   26.7349  C.ar  1 <0>         0.0471
7    C7      -26.9267  -13.5084   27.6680  C.ar  1 <0>         0.1057
8    C8      -31.1521  -12.5960   26.1474  C.2   1 <0>         0.0343
9    C9      -31.5947   -8.3554   25.9755  C.2   1 <0>         0.3223
10   C10     -30.1372  -10.3110   26.5137  C.3   1 <0>         0.0005
11   C11     -32.4522  -12.0613   25.7065  C.3   1 <0>         0.0374
12   C12     -31.6029   -9.7813   26.3787  C.3   1 <0>         0.1101
13   N1      -30.7981  -13.8869   26.2819  N.2   1 <0>        -0.3567
14   N2      -24.7992  -11.6594   28.1983  N.pl3 1 <0>        -0.2035
15   N3      -32.3636  -10.6116   25.3991  N.4   1 <0>        -0.2984
16   O1      -30.7230   -7.4925   26.5541  O.co2 1 <0>        -0.4795
17   O2      -32.3739   -7.9089   24.9611  O.co2 1 <0>        -0.2492
18   O3      -25.2319  -13.7034   29.7702  O.2   1 <0>        -0.1533
19   O4      -24.2215  -14.1593   27.5123  O.2   1 <0>        -0.1533
20   S1      -25.3089  -13.2552   28.2451  S.o2  1 <0>         0.0560
21   H1      -29.1089  -15.9872   26.9314  H     1 <0>         0.0639
22   H2      -26.8594  -15.6308   27.7778  H     1 <0>         0.0638
23   H3      -27.4077  -11.4377   27.4567  H     1 <0>         0.0644
24   H4      -29.6989   -9.9246   27.4390  H     1 <0>         0.0334
25   H5      -29.5269   -9.9682   25.6714  H     1 <0>         0.0334
26   H6      -32.7686  -12.5732   24.7970  H     1 <0>         0.0488
27   H7      -33.2026  -12.2330   26.4811  H     1 <0>         0.0488
28   H8      -32.1019   -9.8402   27.3546  H     1 <0>         0.0579
29   H9      -25.1281  -11.0574   28.8877  H     1 <0>         0.1442
30   H10     -24.5169  -11.2742   27.3510  H     1 <0>         0.1442
31   H11     -31.8769  -10.5229   24.5038  H     1 <0>         0.1231
32   H12     -33.3138  -10.2412   25.2957  H     1 <0>         0.0000
@<TRIPOS>BOND
     1    1    2 ar
     2    1    6 ar
     3    2    7 ar
     4    3    4 ar
     5    3    7 ar
     6    4    5 1
     7    4    6 ar
     8    5    8 2
     9    5   10 1
    10    6   13 1
    11    7   20 1
    12    8   11 1
    13    8   13 1
    14    9   12 1
    15    9   16 1
    16    9   17 2
    17   10   12 1
    18   11   15 1
    19   12   15 1
    20   14   20 1
    21   18   20 2
    22   19   20 2
    23    1   21 1
    24    2   22 1
    25    3   23 1
    26   10   24 1
    27   10   25 1
    28   11   26 1
    29   11   27 1
    30   12   28 1
    31   14   29 1
    32   14   30 1
    33   15   31 1
    34   15   32 1
@<TRIPOS>PROPERTY_DATA
  Total_Score	| 9.9364
  Crash		| -1.0291
  Polar		| 8.2175

@<TRIPOS>MOLECULE
ligand_uncharged59_001
   32    34     0     0     0
SMALL
USER_CHARGES

@<TRIPOS>ATOM
1    C1      -28.7300  -15.1003   27.1224  C.ar  1 <0>        -0.0359
2    C2      -27.4213  -14.8901   27.6023  C.ar  1 <0>        -0.0334
3    C3      -27.7033  -12.4640   27.3903  C.ar  1 <0>        -0.0259
4    C4      -29.0090  -12.6851   26.9177  C.ar  1 <0>         0.0050
5    C5      -30.0257  -11.8246   26.5282  C.2   1 <0>        -0.0158
6    C6      -29.5075  -13.9813   26.7820  C.ar  1 <0>         0.0471
7    C7      -26.9027  -13.5805   27.7339  C.ar  1 <0>         0.1057
8    C8      -31.0904  -12.6377   26.1449  C.2   1 <0>         0.0343
9    C9      -31.5407   -8.3941   25.9278  C.2   1 <0>         0.3223
10   C10     -30.0663  -10.3492   26.4772  C.3   1 <0>         0.0005
11   C11     -32.3772  -12.0966   25.6630  C.3   1 <0>         0.0374
12   C12     -31.5318   -9.8185   26.3283  C.3   1 <0>         0.1101
13   N1      -30.7623  -13.9334   26.3089  N.2   1 <0>        -0.3567
14   N2      -24.7846  -11.7442   28.3129  N.pl3 1 <0>        -0.2035
15   N3      -32.2885  -10.6476   25.3479  N.4   1 <0>        -0.2984
16   O1      -32.4069   -7.9276   24.9968  O.co2 1 <0>        -0.4795
17   O2      -30.6998   -7.5193   26.5235  O.co2 1 <0>        -0.2492
18   O3      -25.1799  -13.8531   29.8277  O.2   1 <0>        -0.1533
19   O4      -24.2198  -14.2113   27.5252  O.2   1 <0>        -0.1533
20   S1      -25.2857  -13.3453   28.3249  S.o2  1 <0>         0.0560
21   H1      -29.1064  -16.0449   27.0255  H     1 <0>         0.0639
22   H2      -26.8508  -15.7012   27.8547  H     1 <0>         0.0638
23   H3      -27.3570  -11.5071   27.4862  H     1 <0>         0.0644
24   H4      -29.6322   -9.9444   27.3961  H     1 <0>         0.0334
25   H5      -29.4509  -10.0293   25.6322  H     1 <0>         0.0334
26   H6      -32.6691  -12.6234   24.7502  H     1 <0>         0.0488
27   H7      -33.1422  -12.2686   26.4226  H     1 <0>         0.0488
28   H8      -32.0346   -9.8885   27.2984  H     1 <0>         0.0579
29   H9      -25.0036  -11.1889   29.0774  H     1 <0>         0.1442
30   H10     -24.6314  -11.3093   27.4594  H     1 <0>         0.1442
31   H11     -31.8135  -10.5529   24.4479  H     1 <0>         0.1231
32   H12     -33.2402  -10.2778   25.2585  H     1 <0>         0.0000
@<TRIPOS>BOND
     1    1    2 ar
     2    1    6 ar
     3    2    7 ar
     4    3    4 ar
     5    3    7 ar
     6    4    5 1
     7    4    6 ar
     8    5    8 2
     9    5   10 1
    10    6   13 1
    11    7   20 1
    12    8   11 1
    13    8   13 1
    14    9   12 1
    15    9   16 1
    16    9   17 2
    17   10   12 1
    18   11   15 1
    19   12   15 1
    20   14   20 1
    21   18   20 2
    22   19   20 2
    23    1   21 1
    24    2   22 1
    25    3   23 1
    26   10   24 1
    27   10   25 1
    28   11   26 1
    29   11   27 1
    30   12   28 1
    31   14   29 1
    32   14   30 1
    33   15   31 1
    34   15   32 1
@<TRIPOS>PROPERTY_DATA
  Total_Score	| 9.7814
  Crash		| -0.9313
  Polar		| 8.1167

@<TRIPOS>MOLECULE
ligand_uncharged59_002
   32    34     0     0     0
SMALL
USER_CHARGES

@<TRIPOS>ATOM
1    C1      -28.4354  -14.7400   27.1928  C.ar  1 <0>        -0.0359
2    C2      -27.1618  -14.4050   27.6996  C.ar  1 <0>        -0.0334
3    C3      -27.6832  -12.0178   27.5141  C.ar  1 <0>        -0.0259
4    C4      -28.9470  -12.3675   27.0135  C.ar  1 <0>         0.0050
5    C5      -30.0259  -11.6037   26.6032  C.2   1 <0>        -0.0158
6    C6      -29.3243  -13.7029   26.8554  C.ar  1 <0>         0.0471
7    C7      -26.7897  -13.0485   27.8710  C.ar  1 <0>         0.1057
8    C8      -31.0131  -12.4988   26.1904  C.2   1 <0>         0.0343
9    C9      -31.7076   -8.2920   25.8841  C.2   1 <0>         0.3223
10   C10     -30.1613  -10.1377   26.5522  C.3   1 <0>         0.0005
11   C11     -32.3191  -12.0469   25.6684  C.3   1 <0>         0.0374
12   C12     -31.6437   -9.7062   26.3164  C.3   1 <0>         0.1101
13   N1      -30.5750  -13.7626   26.3562  N.2   1 <0>        -0.3567
14   N2      -24.0977  -12.1961   27.3498  N.pl3 1 <0>        -0.2035
15   N3      -32.3115  -10.6010   25.3298  N.4   1 <0>        -0.2984
16   O1      -30.9307   -7.3708   26.5032  O.co2 1 <0>        -0.4795
17   O2      -32.6519   -7.8660   25.0147  O.co2 1 <0>        -0.2492
18   O3      -25.3641  -11.3657   29.4679  O.2   1 <0>        -0.1533
19   O4      -24.6196  -13.7751   29.4432  O.2   1 <0>        -0.1533
20   S1      -25.2250  -12.6334   28.5132  S.o2  1 <0>         0.0560
21   H1      -28.7048  -15.7146   27.0601  H     1 <0>         0.0639
22   H2      -26.5118  -15.1545   27.9329  H     1 <0>         0.0638
23   H3      -27.4289  -11.0320   27.6150  H     1 <0>         0.0644
24   H4      -29.8095   -9.7219   27.5000  H     1 <0>         0.0334
25   H5      -29.5102   -9.7722   25.7515  H     1 <0>         0.0334
26   H6      -32.5553  -12.6053   24.7654  H     1 <0>         0.0488
27   H7      -33.0941  -12.2450   26.4087  H     1 <0>         0.0488
28   H8      -32.1852   -9.7695   27.2681  H     1 <0>         0.0579
29   H9      -24.1073  -11.2928   26.9935  H     1 <0>         0.1442
30   H10     -23.6950  -12.8957   26.8095  H     1 <0>         0.1442
31   H11     -31.8123  -10.4929   24.4426  H     1 <0>         0.1231
32   H12     -33.2797  -10.2973   25.2053  H     1 <0>         0.0000
@<TRIPOS>BOND
     1    1    2 ar
     2    1    6 ar
     3    2    7 ar
     4    3    4 ar
     5    3    7 ar
     6    4    5 1
     7    4    6 ar
     8    5    8 2
     9    5   10 1
    10    6   13 1
    11    7   20 1
    12    8   11 1
    13    8   13 1
    14    9   12 1
    15    9   16 1
    16    9   17 2
    17   10   12 1
    18   11   15 1
    19   12   15 1
    20   14   20 1
    21   18   20 2
    22   19   20 2
    23    1   21 1
    24    2   22 1
    25    3   23 1
    26   10   24 1
    27   10   25 1
    28   11   26 1
    29   11   27 1
    30   12   28 1
    31   14   29 1
    32   14   30 1
    33   15   31 1
    34   15   32 1
@<TRIPOS>PROPERTY_DATA
  Total_Score	| 9.1124
  Crash		| -1.5203
  Polar		| 7.1930

@<TRIPOS>MOLECULE
ligand_negative2_000
   32    34     0     0     0
SMALL
USER_CHARGES

@<TRIPOS>ATOM
1    C1      -27.2108  -14.5795   28.1626  C.ar  1 <0>        -0.0561
2    C2      -28.4507  -14.8900   27.5720  C.ar  1 <0>        -0.0375
3    C3      -27.6069  -12.1894   27.8253  C.ar  1 <0>        -0.0486
4    C4      -28.8522  -12.5098   27.2617  C.ar  1 <0>         0.0035
5    C5      -29.8934  -11.7322   26.7685  C.2   1 <0>        -0.0159
6    C6      -26.7570  -13.2363   28.2732  C.ar  1 <0>        -0.0361
7    C7      -29.2625  -13.8363   27.1274  C.ar  1 <0>         0.0470
8    C8      -30.8699  -12.6217   26.3262  C.2   1 <0>         0.0343
9    C9      -31.5564   -8.4194   25.9347  C.2   1 <0>         0.3223
10   C10     -24.3063  -13.4888   28.0788  C.2   1 <0>         0.3091
11   C11     -30.0207  -10.2656   26.6822  C.3   1 <0>         0.0005
12   C12     -32.1423  -12.1796   25.7303  C.3   1 <0>         0.0374
13   C13     -31.4949   -9.8292   26.3897  C.3   1 <0>         0.1101
14   C14     -25.4267  -12.9422   28.8736  C.3   1 <0>         0.0699
15   N1      -30.4775  -13.8867   26.5592  N.2   1 <0>        -0.3567
16   N2      -32.1174  -10.7346   25.3819  N.4   1 <0>        -0.2984
17   O1      -30.8302   -7.4641   26.5614  O.co2 1 <0>        -0.4795
18   O2      -24.2487  -14.7912   27.7352  O.co2 1 <0>        -0.4804
19   O3      -32.4496   -8.0268   24.9970  O.co2 1 <0>        -0.2492
20   O4      -23.2643  -12.7088   27.7150  O.co2 1 <0>        -0.2507
21   H1      -26.6370  -15.3492   28.5105  H     1 <0>         0.0621
22   H2      -28.7574  -15.8604   27.4797  H     1 <0>         0.0638
23   H3      -27.3281  -11.2100   27.9143  H     1 <0>         0.0627
24   H4      -29.6998   -9.8261   27.6307  H     1 <0>         0.0334
25   H5      -29.3508   -9.9150   25.8925  H     1 <0>         0.0334
26   H6      -32.3265  -12.7428   24.8154  H     1 <0>         0.0488
27   H7      -32.9561  -12.3783   26.4288  H     1 <0>         0.0488
28   H8      -32.0746   -9.8933   27.3195  H     1 <0>         0.0579
29   H9      -25.2769  -11.8631   28.9821  H     1 <0>         0.0426
30   H10     -25.3865  -13.3722   29.8778  H     1 <0>         0.0426
31   H11     -31.5849  -10.6340   24.5159  H     1 <0>         0.1231
32   H12     -33.0799  -10.4310   25.2083  H     1 <0>         0.0000
@<TRIPOS>BOND
     1    1    2 ar
     2    1    6 ar
     3    2    7 ar
     4    3    4 ar
     5    3    6 ar
     6    4    5 1
     7    4    7 ar
     8    5    8 2
     9    5   11 1
    10    6   14 1
    11    7   15 1
    12    8   12 1
    13    8   15 1
    14    9   13 1
    15    9   17 1
    16    9   19 2
    17   10   14 1
    18   10   18 1
    19   10   20 2
    20   11   13 1
    21   12   16 1
    22   13   16 1
    23    1   21 1
    24    2   22 1
    25    3   23 1
    26   11   24 1
    27   11   25 1
    28   12   26 1
    29   12   27 1
    30   13   28 1
    31   14   29 1
    32   14   30 1
    33   16   31 1
    34   16   32 1
@<TRIPOS>PROPERTY_DATA
  Total_Score	| 11.8793
  Crash		| -0.5973
  Polar		| 9.2811

@<TRIPOS>MOLECULE
ligand_negative2_001
   32    34     0     0     0
SMALL
USER_CHARGES

@<TRIPOS>ATOM
1    C1      -27.2011  -14.6617   28.0499  C.ar  1 <0>        -0.0561
2    C2      -28.4519  -14.9504   27.4650  C.ar  1 <0>        -0.0375
3    C3      -27.6297  -12.2605   27.8444  C.ar  1 <0>        -0.0486
4    C4      -28.8748  -12.5615   27.2639  C.ar  1 <0>         0.0035
5    C5      -29.9106  -11.7642   26.7928  C.2   1 <0>        -0.0159
6    C6      -26.7819  -13.3213   28.2567  C.ar  1 <0>        -0.0361
7    C7      -29.2788  -13.8818   27.0805  C.ar  1 <0>         0.0470
8    C8      -30.8920  -12.6353   26.3286  C.2   1 <0>         0.0343
9    C9      -31.5351   -8.4173   25.9535  C.2   1 <0>         0.3223
10   C10     -24.3495  -13.5230   28.0850  C.2   1 <0>         0.3091
11   C11     -30.0213  -10.2924   26.7245  C.3   1 <0>         0.0005
12   C12     -32.1594  -12.1673   25.7406  C.3   1 <0>         0.0374
13   C13     -31.4845   -9.8244   26.4241  C.3   1 <0>         0.1101
14   C14     -25.4739  -13.0259   28.8977  C.3   1 <0>         0.0699
15   N1      -30.4821  -13.9096   26.4820  N.2   1 <0>        -0.3567
16   N2      -32.1232  -10.7182   25.4179  N.4   1 <0>        -0.2984
17   O1      -32.4135   -8.0368   24.9962  O.co2 1 <0>        -0.4795
18   O2      -23.3233  -12.7103   27.7584  O.co2 1 <0>        -0.4804
19   O3      -30.8101   -7.4419   26.5442  O.co2 1 <0>        -0.2492
20   O4      -24.2762  -14.8227   27.7146  O.co2 1 <0>        -0.2507
21   H1      -26.6010  -15.4384   28.3375  H     1 <0>         0.0621
22   H2      -28.7489  -15.9176   27.3223  H     1 <0>         0.0638
23   H3      -27.3565  -11.2842   27.9707  H     1 <0>         0.0627
24   H4      -29.6985   -9.8606   27.6750  H     1 <0>         0.0334
25   H5      -29.3465   -9.9514   25.9352  H     1 <0>         0.0334
26   H6      -32.3595  -12.7148   24.8161  H     1 <0>         0.0488
27   H7      -32.9688  -12.3606   26.4457  H     1 <0>         0.0488
28   H8      -32.0741   -9.8816   27.3435  H     1 <0>         0.0579
29   H9      -25.3601  -11.9489   29.0468  H     1 <0>         0.0426
30   H10     -25.4213  -13.4811   29.8869  H     1 <0>         0.0426
31   H11     -31.6019  -10.6106   24.5506  H     1 <0>         0.1231
32   H12     -33.0850  -10.4126   25.2523  H     1 <0>         0.0000
@<TRIPOS>BOND
     1    1    2 ar
     2    1    6 ar
     3    2    7 ar
     4    3    4 ar
     5    3    6 ar
     6    4    5 1
     7    4    7 ar
     8    5    8 2
     9    5   11 1
    10    6   14 1
    11    7   15 1
    12    8   12 1
    13    8   15 1
    14    9   13 1
    15    9   17 1
    16    9   19 2
    17   10   14 1
    18   10   18 1
    19   10   20 2
    20   11   13 1
    21   12   16 1
    22   13   16 1
    23    1   21 1
    24    2   22 1
    25    3   23 1
    26   11   24 1
    27   11   25 1
    28   12   26 1
    29   12   27 1
    30   13   28 1
    31   14   29 1
    32   14   30 1
    33   16   31 1
    34   16   32 1
@<TRIPOS>PROPERTY_DATA
  Total_Score	| 11.8345
  Crash		| -0.5779
  Polar		| 9.3185

@<TRIPOS>MOLECULE
ligand_negative2_002
   32    34     0     0     0
SMALL
USER_CHARGES

@<TRIPOS>ATOM
1    C1      -27.2181  -14.6108   28.1319  C.ar  1 <0>        -0.0561
2    C2      -28.4605  -14.9159   27.5397  C.ar  1 <0>        -0.0375
3    C3      -27.6364  -12.2141   27.8639  C.ar  1 <0>        -0.0486
4    C4      -28.8800  -12.5297   27.2918  C.ar  1 <0>         0.0035
5    C5      -29.9287  -11.7489   26.8142  C.2   1 <0>        -0.0159
6    C6      -26.7763  -13.2676   28.2837  C.ar  1 <0>        -0.0361
7    C7      -29.2780  -13.8565   27.1264  C.ar  1 <0>         0.0470
8    C8      -30.8988  -12.6359   26.3560  C.2   1 <0>         0.0343
9    C9      -31.5807   -8.4354   25.9625  C.2   1 <0>         0.3223
10   C10     -24.3169  -13.4931   28.0942  C.2   1 <0>         0.3091
11   C11     -30.0575  -10.2813   26.7361  C.3   1 <0>         0.0005
12   C12     -32.1725  -12.1923   25.7623  C.3   1 <0>         0.0374
13   C13     -31.5286   -9.8425   26.4265  C.3   1 <0>         0.1101
14   C14     -25.4495  -12.9816   28.8988  C.3   1 <0>         0.0699
15   N1      -30.4969  -13.9026   26.5616  N.2   1 <0>        -0.3567
16   N2      -32.1462  -10.7502   25.4171  N.4   1 <0>        -0.2984
17   O1      -30.8426   -7.4825   26.5791  O.co2 1 <0>        -0.4795
18   O2      -23.2046  -12.7481   27.9260  O.co2 1 <0>        -0.4804
19   O3      -32.4657   -8.0433   25.0160  O.co2 1 <0>        -0.2492
20   O4      -24.2581  -14.7852   27.6921  O.co2 1 <0>        -0.2507
21   H1      -26.6361  -15.3881   28.4551  H     1 <0>         0.0621
22   H2      -28.7580  -15.8881   27.4233  H     1 <0>         0.0638
23   H3      -27.3628  -11.2341   27.9791  H     1 <0>         0.0627
24   H4      -29.7467   -9.8466   27.6922  H     1 <0>         0.0334
25   H5      -29.3741   -9.9275   25.9556  H     1 <0>         0.0334
26   H6      -32.3588  -12.7522   24.8467  H     1 <0>         0.0488
27   H7      -32.9853  -12.3932   26.4606  H     1 <0>         0.0488
28   H8      -32.1136   -9.8969   27.3503  H     1 <0>         0.0579
29   H9      -25.3116  -11.9043   29.0473  H     1 <0>         0.0426
30   H10     -25.4145  -13.4514   29.8868  H     1 <0>         0.0426
31   H11     -31.6144  -10.6443   24.5509  H     1 <0>         0.1231
32   H12     -33.1090  -10.4448   25.2449  H     1 <0>         0.0000
@<TRIPOS>BOND
     1    1    2 ar
     2    1    6 ar
     3    2    7 ar
     4    3    4 ar
     5    3    6 ar
     6    4    5 1
     7    4    7 ar
     8    5    8 2
     9    5   11 1
    10    6   14 1
    11    7   15 1
    12    8   12 1
    13    8   15 1
    14    9   13 1
    15    9   17 1
    16    9   19 2
    17   10   14 1
    18   10   18 1
    19   10   20 2
    20   11   13 1
    21   12   16 1
    22   13   16 1
    23    1   21 1
    24    2   22 1
    25    3   23 1
    26   11   24 1
    27   11   25 1
    28   12   26 1
    29   12   27 1
    30   13   28 1
    31   14   29 1
    32   14   30 1
    33   16   31 1
    34   16   32 1
@<TRIPOS>PROPERTY_DATA
  Total_Score	| 11.8073
  Crash		| -0.6552
  Polar		| 9.2919

@<TRIPOS>MOLECULE
ligand_negative6_000
   39    42     0     0     0
SMALL
USER_CHARGES

@<TRIPOS>ATOM
1    C1      -26.9614  -15.2383   30.9048  C.ar  1 <0>        -0.0604
2    C2      -27.9966  -14.9486   29.9936  C.ar  1 <0>        -0.0540
3    C3      -29.3831  -16.1718   26.9202  C.ar  1 <0>        -0.0521
4    C4      -25.7850  -15.8721   30.4620  C.ar  1 <0>        -0.0477
5    C5      -30.3605  -15.9843   25.9319  C.ar  1 <0>        -0.0372
6    C6      -29.4543  -13.7880   27.4875  C.ar  1 <0>        -0.0446
7    C7      -26.6486  -15.8860   28.1920  C.ar  1 <0>        -0.0400
8    C8      -30.4174  -13.6164   26.4846  C.ar  1 <0>         0.0038
9    C9      -28.9149  -15.0836   27.7023  C.ar  1 <0>        -0.0172
10   C10     -27.8621  -15.2958   28.6313  C.ar  1 <0>        -0.0171
11   C11     -25.6025  -16.1866   29.0932  C.ar  1 <0>         0.0594
12   C12     -31.0877  -12.4919   26.0119  C.2   1 <0>        -0.0158
13   C13     -30.8670  -14.6937   25.7234  C.ar  1 <0>         0.0470
14   C14     -31.9419  -12.9416   25.0127  C.2   1 <0>         0.0343
15   C15     -24.4243  -16.8141   28.6319  C.2   1 <0>         0.3368
16   C16     -31.8736   -8.7532   25.8715  C.2   1 <0>         0.3223
17   C17     -30.9765  -11.0764   26.4256  C.3   1 <0>         0.0005
18   C18     -32.8407  -12.0405   24.2792  C.3   1 <0>         0.0374
19   C19     -31.6524  -10.1252   25.3871  C.3   1 <0>         0.1101
20   N1      -31.7554  -14.2619   24.8191  N.2   1 <0>        -0.3567
21   N2      -32.9435  -10.7105   24.9240  N.4   1 <0>        -0.2984
22   O1      -23.6191  -17.4972   29.4790  O.co2 1 <0>        -0.4771
23   O2      -32.4687   -7.8475   25.0579  O.co2 1 <0>        -0.4795
24   O3      -24.0996  -16.7791   27.3191  O.co2 1 <0>        -0.2451
25   O4      -31.2828   -8.2879   26.9903  O.co2 1 <0>        -0.2492
26   H1      -27.0798  -14.9972   31.8929  H     1 <0>         0.0618
27   H2      -28.8576  -14.5132   30.3372  H     1 <0>         0.0624
28   H3      -29.0079  -17.1078   27.0506  H     1 <0>         0.0624
29   H4      -25.0520  -16.0691   31.1495  H     1 <0>         0.0626
30   H5      -30.7121  -16.7664   25.3725  H     1 <0>         0.0638
31   H6      -29.1183  -12.9915   28.0287  H     1 <0>         0.0630
32   H7      -26.5494  -16.1326   27.2066  H     1 <0>         0.0632
33   H8      -31.4377  -10.9565   27.4043  H     1 <0>         0.0334
34   H9      -29.9124  -10.8209   26.5064  H     1 <0>         0.0334
35   H10     -32.4695  -11.9239   23.2611  H     1 <0>         0.0488
36   H11     -33.8312  -12.4815   24.2499  H     1 <0>         0.0488
37   H12     -30.9923  -10.0373   24.5234  H     1 <0>         0.0579
38   H13     -33.4069  -10.1068   24.2403  H     1 <0>         0.1231
39   H14     -33.5561  -10.8066   25.7313  H     1 <0>         0.0000
@<TRIPOS>BOND
     1    1    2 ar
     2    1    4 ar
     3    2   10 ar
     4    3    5 ar
     5    3    9 ar
     6    4   11 ar
     7    5   13 ar
     8    6    8 ar
     9    6    9 ar
    10    7   10 ar
    11    7   11 ar
    12    8   12 1
    13    8   13 ar
    14    9   10 1
    15   11   15 1
    16   12   14 2
    17   12   17 1
    18   13   20 1
    19   14   18 1
    20   14   20 1
    21   15   22 1
    22   15   24 2
    23   16   19 1
    24   16   23 1
    25   16   25 2
    26   17   19 1
    27   18   21 1
    28   19   21 1
    29    1   26 1
    30    2   27 1
    31    3   28 1
    32    4   29 1
    33    5   30 1
    34    6   31 1
    35    7   32 1
    36   17   33 1
    37   17   34 1
    38   18   35 1
    39   18   36 1
    40   19   37 1
    41   21   38 1
    42   21   39 1
@<TRIPOS>PROPERTY_DATA
  Total_Score	| 6.7578
  Crash		| -3.2644
  Polar		| 3.9507

@<TRIPOS>MOLECULE
ligand_negative6_001
   39    42     0     0     0
SMALL
USER_CHARGES

@<TRIPOS>ATOM
1    C1      -26.8188  -16.4307   30.1544  C.ar  1 <0>        -0.0604
2    C2      -27.8709  -16.3028   29.2341  C.ar  1 <0>        -0.0540
3    C3      -29.4967  -16.1450   26.6485  C.ar  1 <0>        -0.0521
4    C4      -25.7930  -15.4751   30.1943  C.ar  1 <0>        -0.0477
5    C5      -30.5089  -15.9386   25.6894  C.ar  1 <0>        -0.0372
6    C6      -29.5231  -13.7687   27.2146  C.ar  1 <0>        -0.0446
7    C7      -26.8308  -14.2910   28.3488  C.ar  1 <0>        -0.0400
8    C8      -30.5239  -13.5822   26.2558  C.ar  1 <0>         0.0038
9    C9      -28.9714  -15.0569   27.4010  C.ar  1 <0>        -0.0172
10   C10     -27.8930  -15.2267   28.3177  C.ar  1 <0>        -0.0171
11   C11     -25.7868  -14.3840   29.2948  C.ar  1 <0>         0.0594
12   C12     -31.1771  -12.4398   25.8380  C.2   1 <0>        -0.0158
13   C13     -31.0085  -14.6395   25.4896  C.ar  1 <0>         0.0470
14   C14     -32.0687  -12.8493   24.8517  C.2   1 <0>         0.0343
15   C15     -24.7805  -13.3952   29.3530  C.2   1 <0>         0.3368
16   C16     -31.8316   -8.6880   25.8576  C.2   1 <0>         0.3223
17   C17     -31.0203  -11.0501   26.2962  C.3   1 <0>         0.0005
18   C18     -32.9717  -11.8943   24.1876  C.3   1 <0>         0.0374
19   C19     -31.6745  -10.0429   25.3023  C.3   1 <0>         0.1101
20   N1      -31.9275  -14.1685   24.6209  N.2   1 <0>        -0.3567
21   N2      -32.9881  -10.5664   24.8393  N.4   1 <0>        -0.2984
22   O1      -24.6359  -12.4326   28.4152  O.co2 1 <0>        -0.4771
23   O2      -32.4607   -7.7502   25.1210  O.co2 1 <0>        -0.4795
24   O3      -23.9721  -13.3057   30.4262  O.co2 1 <0>        -0.2451
25   O4      -31.1067   -8.2583   26.9117  O.co2 1 <0>        -0.2492
26   H1      -26.8012  -17.2195   30.7974  H     1 <0>         0.0618
27   H2      -28.6373  -16.9734   29.2667  H     1 <0>         0.0624
28   H3      -29.1197  -17.0869   26.7700  H     1 <0>         0.0624
29   H4      -25.0481  -15.5906   30.8855  H     1 <0>         0.0626
30   H5      -30.8780  -16.7279   25.1550  H     1 <0>         0.0638
31   H6      -29.2030  -12.9674   27.7627  H     1 <0>         0.0630
32   H7      -26.8251  -13.5179   27.6754  H     1 <0>         0.0632
33   H8      -31.4879  -10.9627   27.2788  H     1 <0>         0.0334
34   H9      -29.9596  -10.8212   26.4041  H     1 <0>         0.0334
35   H10     -32.6654  -11.7744   23.1488  H     1 <0>         0.0488
36   H11     -33.9889  -12.2781   24.2201  H     1 <0>         0.0488
37   H12     -31.0254   -9.9328   24.4320  H     1 <0>         0.0579
38   H13     -33.4018   -9.9321   24.1610  H     1 <0>         0.1231
39   H14     -33.6060  -10.6195   25.6463  H     1 <0>         0.0000
@<TRIPOS>BOND
     1    1    2 ar
     2    1    4 ar
     3    2   10 ar
     4    3    5 ar
     5    3    9 ar
     6    4   11 ar
     7    5   13 ar
     8    6    8 ar
     9    6    9 ar
    10    7   10 ar
    11    7   11 ar
    12    8   12 1
    13    8   13 ar
    14    9   10 1
    15   11   15 1
    16   12   14 2
    17   12   17 1
    18   13   20 1
    19   14   18 1
    20   14   20 1
    21   15   22 1
    22   15   24 2
    23   16   19 1
    24   16   23 1
    25   16   25 2
    26   17   19 1
    27   18   21 1
    28   19   21 1
    29    1   26 1
    30    2   27 1
    31    3   28 1
    32    4   29 1
    33    5   30 1
    34    6   31 1
    35    7   32 1
    36   17   33 1
    37   17   34 1
    38   18   35 1
    39   18   36 1
    40   19   37 1
    41   21   38 1
    42   21   39 1
@<TRIPOS>PROPERTY_DATA
  Total_Score	| 6.6239
  Crash		| -4.8801
  Polar		| 5.2056

@<TRIPOS>MOLECULE
ligand_negative6_002
   39    42     0     0     0
SMALL
USER_CHARGES

@<TRIPOS>ATOM
1    C1      -26.7961  -16.5624   30.1875  C.ar  1 <0>        -0.0604
2    C2      -27.8396  -16.3757   29.2643  C.ar  1 <0>        -0.0540
3    C3      -29.4401  -16.1113   26.7174  C.ar  1 <0>        -0.0521
4    C4      -25.7725  -15.6094   30.2909  C.ar  1 <0>        -0.0477
5    C5      -30.4575  -15.9072   25.7716  C.ar  1 <0>        -0.0372
6    C6      -29.4666  -13.7399   27.3063  C.ar  1 <0>        -0.0446
7    C7      -26.7967  -14.3161   28.5150  C.ar  1 <0>        -0.0400
8    C8      -30.4715  -13.5437   26.3499  C.ar  1 <0>         0.0038
9    C9      -28.9270  -15.0383   27.4906  C.ar  1 <0>        -0.0172
10   C10     -27.8617  -15.2462   28.4228  C.ar  1 <0>        -0.0171
11   C11     -25.7529  -14.4754   29.4522  C.ar  1 <0>         0.0594
12   C12     -31.1318  -12.4069   25.9234  C.2   1 <0>        -0.0158
13   C13     -30.9550  -14.6060   25.5848  C.ar  1 <0>         0.0470
14   C14     -32.0069  -12.8371   24.9286  C.2   1 <0>         0.0343
15   C15     -24.7308  -13.4999   29.5573  C.2   1 <0>         0.3368
16   C16     -31.8494   -8.6557   25.8083  C.2   1 <0>         0.3223
17   C17     -30.9908  -10.9956   26.3399  C.3   1 <0>         0.0005
18   C18     -32.8800  -11.9216   24.1923  C.3   1 <0>         0.0374
19   C19     -31.6441  -10.0308   25.3006  C.3   1 <0>         0.1101
20   N1      -31.8615  -14.1592   24.7055  N.2   1 <0>        -0.3567
21   N2      -32.9447  -10.5811   24.8277  N.4   1 <0>        -0.2984
22   O1      -24.5653  -12.5134   28.6481  O.co2 1 <0>        -0.4771
23   O2      -31.1407   -8.1751   26.8481  O.co2 1 <0>        -0.4795
24   O3      -23.8995  -13.4833   30.6176  O.co2 1 <0>        -0.2451
25   O4      -32.5087   -7.7512   25.0574  O.co2 1 <0>        -0.2492
26   H1      -26.7875  -17.3867   30.7782  H     1 <0>         0.0618
27   H2      -28.5943  -17.0675   29.2393  H     1 <0>         0.0624
28   H3      -29.0562  -17.0518   26.8129  H     1 <0>         0.0624
29   H4      -25.0377  -15.7611   30.9837  H     1 <0>         0.0626
30   H5      -30.8190  -16.6823   25.2190  H     1 <0>         0.0638
31   H6      -29.1446  -12.9377   27.8552  H     1 <0>         0.0630
32   H7      -26.7857  -13.5071   27.8936  H     1 <0>         0.0632
33   H8      -31.4713  -10.8782   27.3145  H     1 <0>         0.0334
34   H9      -29.9336  -10.7520   26.4550  H     1 <0>         0.0334
35   H10     -32.5031  -11.8256   23.1742  H     1 <0>         0.0488
36   H11     -33.8879  -12.3342   24.1642  H     1 <0>         0.0488
37   H12     -30.9759   -9.9544   24.4396  H     1 <0>         0.0579
38   H13     -33.3624   -9.9518   24.1384  H     1 <0>         0.1231
39   H14     -33.5702  -10.6441   25.6335  H     1 <0>         0.0000
@<TRIPOS>BOND
     1    1    2 ar
     2    1    4 ar
     3    2   10 ar
     4    3    5 ar
     5    3    9 ar
     6    4   11 ar
     7    5   13 ar
     8    6    8 ar
     9    6    9 ar
    10    7   10 ar
    11    7   11 ar
    12    8   12 1
    13    8   13 ar
    14    9   10 1
    15   11   15 1
    16   12   14 2
    17   12   17 1
    18   13   20 1
    19   14   18 1
    20   14   20 1
    21   15   22 1
    22   15   24 2
    23   16   19 1
    24   16   23 1
    25   16   25 2
    26   17   19 1
    27   18   21 1
    28   19   21 1
    29    1   26 1
    30    2   27 1
    31    3   28 1
    32    4   29 1
    33    5   30 1
    34    6   31 1
    35    7   32 1
    36   17   33 1
    37   17   34 1
    38   18   35 1
    39   18   36 1
    40   19   37 1
    41   21   38 1
    42   21   39 1
@<TRIPOS>PROPERTY_DATA
  Total_Score	| 6.6039
  Crash		| -5.0322
  Polar		| 5.1365

@<TRIPOS>MOLECULE
ligand_uncharged5_000
   31    33     0     0     0
SMALL
USER_CHARGES

@<TRIPOS>ATOM
1    C1      -27.4631  -14.8636   27.8489  C.ar  1 <0>        -0.0477
2    C2      -28.7115  -15.0856   27.2312  C.ar  1 <0>        -0.0371
3    C3      -27.8049  -12.4456   27.7392  C.ar  1 <0>        -0.0402
4    C4      -29.0449  -12.6817   27.1226  C.ar  1 <0>         0.0039
5    C5      -26.9838  -13.5476   28.1153  C.ar  1 <0>         0.0372
6    C6      -30.0431  -11.8290   26.6641  C.2   1 <0>        -0.0158
7    C7      -29.4914  -13.9766   26.8684  C.ar  1 <0>         0.0470
8    C8      -31.0370  -12.6464   26.1316  C.2   1 <0>         0.0343
9    C9      -25.7441  -13.3526   28.7340  C.2   1 <0>         0.2416
10   C10     -31.5752   -8.4030   26.0174  C.2   1 <0>         0.3223
11   C11     -30.1097  -10.3518   26.6673  C.3   1 <0>         0.0005
12   C12     -32.2760  -12.1119   25.5412  C.3   1 <0>         0.0374
13   C13     -31.5590   -9.8382   26.3802  C.3   1 <0>         0.1101
14   N1      -30.6915  -13.9384   26.2705  N.2   1 <0>        -0.3567
15   N2      -25.2704  -12.1715   29.0640  N.am  1 <0>        -0.3253
16   N3      -32.1896  -10.6476   25.2982  N.4   1 <0>        -0.2984
17   O1      -32.4300   -7.9301   25.0854  O.co2 1 <0>        -0.4795
18   O2      -25.0093  -14.2940   29.0109  O.2   1 <0>        -0.2704
19   O3      -30.8391   -7.5145   26.7224  O.co2 1 <0>        -0.2492
20   H1      -26.9055  -15.6867   28.1037  H     1 <0>         0.0626
21   H2      -29.0409  -16.0358   27.0443  H     1 <0>         0.0638
22   H3      -27.5141  -11.4789   27.9018  H     1 <0>         0.0632
23   H4      -29.7834   -9.9846   27.6457  H     1 <0>         0.0334
24   H5      -29.4100   -9.9848   25.9097  H     1 <0>         0.0334
25   H6      -32.4609  -12.5993   24.5835  H     1 <0>         0.0488
26   H7      -33.1158  -12.3188   26.2054  H     1 <0>         0.0488
27   H8      -32.1574   -9.9610   27.2913  H     1 <0>         0.0579
28   H9      -25.7802  -11.3624   28.8931  H     1 <0>         0.1453
29   H10     -24.4019  -12.1100   29.4911  H     1 <0>         0.1453
30   H11     -31.6344  -10.5061   24.4508  H     1 <0>         0.1231
31   H12     -33.1377  -10.2990   25.1299  H     1 <0>         0.0000
@<TRIPOS>BOND
     1    1    2 ar
     2    1    5 ar
     3    2    7 ar
     4    3    4 ar
     5    3    5 ar
     6    4    6 1
     7    4    7 ar
     8    5    9 1
     9    6    8 2
    10    6   11 1
    11    7   14 1
    12    8   12 1
    13    8   14 1
    14    9   15 am
    15    9   18 2
    16   10   13 1
    17   10   17 1
    18   10   19 2
    19   11   13 1
    20   12   16 1
    21   13   16 1
    22    1   20 1
    23    2   21 1
    24    3   22 1
    25   11   23 1
    26   11   24 1
    27   12   25 1
    28   12   26 1
    29   13   27 1
    30   15   28 1
    31   15   29 1
    32   16   30 1
    33   16   31 1
@<TRIPOS>PROPERTY_DATA
  Total_Score	| 7.5008
  Crash		| -0.7349
  Polar		| 6.4248

@<TRIPOS>MOLECULE
ligand_uncharged5_001
   31    33     0     0     0
SMALL
USER_CHARGES

@<TRIPOS>ATOM
1    C1      -32.2083  -11.9333   24.5706  C.ar  1 <0>        -0.0477
2    C2      -31.9067  -13.3071   24.4316  C.ar  1 <0>        -0.0371
3    C3      -30.7026  -11.7637   26.4851  C.ar  1 <0>        -0.0402
4    C4      -30.4206  -13.1318   26.3434  C.ar  1 <0>         0.0039
5    C5      -31.6143  -11.1324   25.5932  C.ar  1 <0>         0.0372
6    C6      -29.5845  -13.9866   27.0483  C.2   1 <0>        -0.0158
7    C7      -31.0094  -13.8926   25.3369  C.ar  1 <0>         0.0470
8    C8      -29.7315  -15.2417   26.4617  C.2   1 <0>         0.0343
9    C9      -31.9206   -9.7706   25.7189  C.2   1 <0>         0.2416
10   C10     -27.1105  -14.8636   29.8035  C.2   1 <0>         0.3223
11   C11     -28.7028  -13.7100   28.2011  C.3   1 <0>         0.0005
12   C12     -29.0360  -16.4392   26.9772  C.3   1 <0>         0.0374
13   C13     -27.7372  -14.9125   28.4723  C.3   1 <0>         0.1101
14   N1      -30.5714  -15.1590   25.4088  N.2   1 <0>        -0.3567
15   N2      -31.4512   -9.0082   26.6856  N.am  1 <0>        -0.3253
16   N3      -28.4569  -16.2013   28.3258  N.4   1 <0>        -0.2984
17   O1      -27.8204  -14.4550   30.8863  O.co2 1 <0>        -0.4795
18   O2      -32.6541   -9.2039   24.9161  O.2   1 <0>        -0.2704
19   O3      -25.8152  -15.2090   29.9741  O.co2 1 <0>        -0.2492
20   H1      -32.8834  -11.5231   23.9210  H     1 <0>         0.0626
21   H2      -32.3376  -13.8602   23.6966  H     1 <0>         0.0638
22   H3      -30.2454  -11.2476   27.2434  H     1 <0>         0.0632
23   H4      -28.1145  -12.8102   28.0028  H     1 <0>         0.0334
24   H5      -29.3399  -13.5240   29.0691  H     1 <0>         0.0334
25   H6      -29.7517  -17.2565   27.0571  H     1 <0>         0.0488
26   H7      -28.2491  -16.7336   26.2801  H     1 <0>         0.0488
27   H8      -26.9408  -14.8842   27.7215  H     1 <0>         0.0579
28   H9      -30.8704   -9.3901   27.3582  H     1 <0>         0.1453
29   H10     -31.6910   -8.0764   26.7286  H     1 <0>         0.1453
30   H11     -29.2181  -16.2110   29.0057  H     1 <0>         0.1231
31   H12     -27.8101  -16.9587   28.5490  H     1 <0>         0.0000
@<TRIPOS>BOND
     1    1    2 ar
     2    1    5 ar
     3    2    7 ar
     4    3    4 ar
     5    3    5 ar
     6    4    6 1
     7    4    7 ar
     8    5    9 1
     9    6    8 2
    10    6   11 1
    11    7   14 1
    12    8   12 1
    13    8   14 1
    14    9   15 am
    15    9   18 2
    16   10   13 1
    17   10   17 1
    18   10   19 2
    19   11   13 1
    20   12   16 1
    21   13   16 1
    22    1   20 1
    23    2   21 1
    24    3   22 1
    25   11   23 1
    26   11   24 1
    27   12   25 1
    28   12   26 1
    29   13   27 1
    30   15   28 1
    31   15   29 1
    32   16   30 1
    33   16   31 1
@<TRIPOS>PROPERTY_DATA
  Total_Score	| 7.1667
  Crash		| -0.9063
  Polar		| 3.8712

@<TRIPOS>MOLECULE
ligand_uncharged5_002
   31    33     0     0     0
SMALL
USER_CHARGES

@<TRIPOS>ATOM
1    C1      -32.1627  -11.6493   24.9109  C.ar  1 <0>        -0.0477
2    C2      -31.8984  -13.0172   24.6822  C.ar  1 <0>        -0.0371
3    C3      -30.6144  -11.6319   26.7968  C.ar  1 <0>        -0.0402
4    C4      -30.3889  -13.0024   26.5805  C.ar  1 <0>         0.0039
5    C5      -31.5239  -10.9267   25.9640  C.ar  1 <0>         0.0372
6    C6      -29.5754  -13.9188   27.2265  C.2   1 <0>        -0.0158
7    C7      -31.0022  -13.6860   25.5321  C.ar  1 <0>         0.0470
8    C8      -29.7543  -15.1345   26.5679  C.2   1 <0>         0.0343
9    C9      -31.7519   -9.5611   26.1837  C.2   1 <0>         0.2416
10   C10     -27.0016  -14.8867   29.8295  C.2   1 <0>         0.3223
11   C11     -28.6780  -13.7200   28.3793  C.3   1 <0>         0.0005
12   C12     -29.0734  -16.3706   27.0122  C.3   1 <0>         0.0374
13   C13     -27.6982  -14.9235   28.5270  C.3   1 <0>         0.1101
14   N1      -30.5843  -14.9664   25.5160  N.2   1 <0>        -0.3567
15   N2      -32.7120   -8.8935   25.5806  N.am  1 <0>        -0.3253
16   N3      -28.4291  -16.2080   28.3483  N.4   1 <0>        -0.2984
17   O1      -27.6178  -14.3955   30.9275  O.co2 1 <0>        -0.4795
18   O2      -31.0654   -8.9070   26.9585  O.2   1 <0>        -0.2704
19   O3      -25.7298  -15.3345   29.9501  O.co2 1 <0>        -0.2492
20   H1      -32.8318  -11.1880   24.2923  H     1 <0>         0.0626
21   H2      -32.3476  -13.5162   23.9100  H     1 <0>         0.0638
22   H3      -30.1448  -11.1706   27.5847  H     1 <0>         0.0632
23   H4      -28.1009  -12.8033   28.2383  H     1 <0>         0.0334
24   H5      -29.2967  -13.6123   29.2743  H     1 <0>         0.0334
25   H6      -29.8106  -17.1705   27.0804  H     1 <0>         0.0488
26   H7      -28.3269  -16.6642   26.2715  H     1 <0>         0.0488
27   H8      -26.9430  -14.8557   27.7372  H     1 <0>         0.0579
28   H9      -33.3917   -9.3610   25.0651  H     1 <0>         0.1453
29   H10     -32.8332   -7.9566   25.7938  H     1 <0>         0.1453
30   H11     -29.1669  -16.2550   29.0535  H     1 <0>         0.1231
31   H12     -27.7827  -16.9843   28.4961  H     1 <0>         0.0000
@<TRIPOS>BOND
     1    1    2 ar
     2    1    5 ar
     3    2    7 ar
     4    3    4 ar
     5    3    5 ar
     6    4    6 1
     7    4    7 ar
     8    5    9 1
     9    6    8 2
    10    6   11 1
    11    7   14 1
    12    8   12 1
    13    8   14 1
    14    9   15 am
    15    9   18 2
    16   10   13 1
    17   10   17 1
    18   10   19 2
    19   11   13 1
    20   12   16 1
    21   13   16 1
    22    1   20 1
    23    2   21 1
    24    3   22 1
    25   11   23 1
    26   11   24 1
    27   12   25 1
    28   12   26 1
    29   13   27 1
    30   15   28 1
    31   15   29 1
    32   16   30 1
    33   16   31 1
@<TRIPOS>PROPERTY_DATA
  Total_Score	| 7.1369
  Crash		| -1.4688
  Polar		| 4.3928

@<TRIPOS>MOLECULE
ligand_hydrophobic11_000
   40    42     0     0     0
SMALL
USER_CHARGES

@<TRIPOS>ATOM
1    C1      -27.6220  -14.5157   28.4398  C.ar  1 <0>        -0.0566
2    C2      -28.8413  -14.8153   27.8015  C.ar  1 <0>        -0.0375
3    C3      -27.8763  -12.1453   27.8941  C.ar  1 <0>        -0.0491
4    C4      -29.1084  -12.4529   27.2912  C.ar  1 <0>         0.0035
5    C5      -30.0811  -11.6593   26.7108  C.2   1 <0>        -0.0159
6    C6      -27.0994  -13.1919   28.4455  C.ar  1 <0>        -0.0467
7    C7      -29.5712  -13.7649   27.2237  C.ar  1 <0>         0.0470
8    C8      -31.0819  -12.5300   26.2689  C.2   1 <0>         0.0343
9    C9      -23.5305  -15.9995   25.6657  C.2   1 <0>        -0.1026
10   C10     -24.3975  -15.5616   26.5825  C.2   1 <0>        -0.0911
11   C11     -31.6461   -8.3121   25.8872  C.2   1 <0>         0.3223
12   C12     -30.1519  -10.1932   26.5773  C.3   1 <0>         0.0005
13   C13     -32.3187  -12.0553   25.6245  C.3   1 <0>         0.0374
14   C14     -31.6171   -9.7279   26.3063  C.3   1 <0>         0.1101
15   C15     -25.7282  -12.9142   28.9670  C.3   1 <0>        -0.0274
16   C16     -24.6547  -14.1600   26.8837  C.3   1 <0>        -0.0347
17   C17     -24.6121  -13.8581   28.4212  C.3   1 <0>        -0.0456
18   N1      -30.7550  -13.7945   26.5925  N.2   1 <0>        -0.3567
19   N2      -32.2671  -10.6072   25.2908  N.4   1 <0>        -0.2984
20   O1      -32.5408   -7.8747   24.9719  O.co2 1 <0>        -0.4795
21   O2      -30.9115   -7.3984   26.5642  O.co2 1 <0>        -0.2492
22   H1      -27.0941  -15.2788   28.8622  H     1 <0>         0.0621
23   H2      -29.1906  -15.7751   27.7606  H     1 <0>         0.0638
24   H3      -27.5548  -11.1757   27.9111  H     1 <0>         0.0627
25   H4      -23.4291  -16.9727   25.4991  H     1 <0>         0.0532
26   H5      -22.9759  -15.3684   25.1418  H     1 <0>         0.0532
27   H6      -24.9492  -16.2431   27.0519  H     1 <0>         0.0566
28   H7      -29.7948   -9.7312   27.5008  H     1 <0>         0.0334
29   H8      -29.4863   -9.8992   25.7610  H     1 <0>         0.0334
30   H9      -32.4708  -12.6103   24.6976  H     1 <0>         0.0488
31   H10     -33.1663  -12.2457   26.2887  H     1 <0>         0.0488
32   H11     -32.1912   -9.8007   27.2375  H     1 <0>         0.0579
33   H12     -25.4288  -11.8855   28.7463  H     1 <0>         0.0313
34   H13     -25.7686  -13.0084   30.0558  H     1 <0>         0.0313
35   H14     -25.6423  -13.9425   26.4711  H     1 <0>         0.0307
36   H15     -23.9540  -13.4933   26.3707  H     1 <0>         0.0307
37   H16     -23.6399  -13.4181   28.6656  H     1 <0>         0.0271
38   H17     -24.6658  -14.7848   29.0016  H     1 <0>         0.0271
39   H18     -31.7375  -10.5049   24.4216  H     1 <0>         0.1231
40   H19     -33.2274  -10.2844   25.1316  H     1 <0>         0.0000
@<TRIPOS>BOND
     1    1    2 ar
     2    1    6 ar
     3    2    7 ar
     4    3    4 ar
     5    3    6 ar
     6    4    5 1
     7    4    7 ar
     8    5    8 2
     9    5   12 1
    10    6   15 1
    11    7   18 1
    12    8   13 1
    13    8   18 1
    14    9   10 2
    15   10   16 1
    16   11   14 1
    17   11   20 1
    18   11   21 2
    19   12   14 1
    20   13   19 1
    21   14   19 1
    22   15   17 1
    23   16   17 1
    24    1   22 1
    25    2   23 1
    26    3   24 1
    27    9   25 1
    28    9   26 1
    29   10   27 1
    30   12   28 1
    31   12   29 1
    32   13   30 1
    33   13   31 1
    34   14   32 1
    35   15   33 1
    36   15   34 1
    37   16   35 1
    38   16   36 1
    39   17   37 1
    40   17   38 1
    41   19   39 1
    42   19   40 1
@<TRIPOS>PROPERTY_DATA
  Total_Score	| 11.2201
  Crash		| -1.7514
  Polar		| 6.4932

@<TRIPOS>MOLECULE
ligand_hydrophobic11_001
   40    42     0     0     0
SMALL
USER_CHARGES

@<TRIPOS>ATOM
1    C1      -27.4928  -14.7717   27.8421  C.ar  1 <0>        -0.0566
2    C2      -28.6984  -15.0067   27.1492  C.ar  1 <0>        -0.0375
3    C3      -27.9682  -12.3737   27.9201  C.ar  1 <0>        -0.0491
4    C4      -29.1543  -12.6177   27.2036  C.ar  1 <0>         0.0035
5    C5      -30.1526  -11.7772   26.7330  C.2   1 <0>        -0.0159
6    C6      -27.1389  -13.4654   28.2830  C.ar  1 <0>        -0.0467
7    C7      -29.5240  -13.9131   26.8458  C.ar  1 <0>         0.0470
8    C8      -31.1000  -12.5963   26.1199  C.2   1 <0>         0.0343
9    C9      -25.2404  -17.5062   30.1547  C.2   1 <0>        -0.1026
10   C10     -26.2249  -16.6190   30.3373  C.2   1 <0>        -0.0911
11   C11     -31.6321   -8.3670   25.9522  C.2   1 <0>         0.3223
12   C12     -30.2453  -10.3021   26.7574  C.3   1 <0>         0.0005
13   C13     -32.3282  -12.0778   25.4958  C.3   1 <0>         0.0374
14   C14     -31.6668   -9.7885   26.3579  C.3   1 <0>         0.1101
15   C15     -25.9383  -13.1853   29.1188  C.3   1 <0>        -0.0274
16   C16     -25.9934  -15.2510   30.7882  C.3   1 <0>        -0.0347
17   C17     -25.1766  -14.3594   29.7929  C.3   1 <0>        -0.0456
18   N1      -30.6979  -13.8817   26.1952  N.2   1 <0>        -0.3567
19   N2      -32.2541  -10.6117   25.2621  N.4   1 <0>        -0.2984
20   O1      -32.4939   -7.8889   25.0245  O.co2 1 <0>        -0.4795
21   O2      -30.8769   -7.4770   26.6400  O.co2 1 <0>        -0.2492
22   H1      -26.8852  -15.5751   28.0074  H     1 <0>         0.0621
23   H2      -28.9624  -15.9537   26.8562  H     1 <0>         0.0638
24   H3      -27.7297  -11.4224   28.2025  H     1 <0>         0.0627
25   H4      -25.4459  -18.4209   29.8271  H     1 <0>         0.0532
26   H5      -24.2882  -17.2543   30.2969  H     1 <0>         0.0532
27   H6      -27.1631  -16.9194   30.1901  H     1 <0>         0.0566
28   H7      -30.0041   -9.9441   27.7620  H     1 <0>         0.0334
29   H8      -29.4894   -9.9205   26.0624  H     1 <0>         0.0334
30   H9      -32.4670  -12.5692   24.5302  H     1 <0>         0.0488
31   H10     -33.1809  -12.3119   26.1417  H     1 <0>         0.0488
32   H11     -32.3231   -9.8727   27.2318  H     1 <0>         0.0579
33   H12     -25.2270  -12.6366   28.4980  H     1 <0>         0.0313
34   H13     -26.2361  -12.5129   29.9278  H     1 <0>         0.0313
35   H14     -25.4742  -15.2957   31.7502  H     1 <0>         0.0307
36   H15     -26.9593  -14.7802   30.9906  H     1 <0>         0.0307
37   H16     -24.7164  -14.9620   29.0073  H     1 <0>         0.0271
38   H17     -24.3507  -13.9124   30.3550  H     1 <0>         0.0271
39   H18     -31.6818  -10.4673   24.4259  H     1 <0>         0.1231
40   H19     -33.2073  -10.2882   25.0760  H     1 <0>         0.0000
@<TRIPOS>BOND
     1    1    2 ar
     2    1    6 ar
     3    2    7 ar
     4    3    4 ar
     5    3    6 ar
     6    4    5 1
     7    4    7 ar
     8    5    8 2
     9    5   12 1
    10    6   15 1
    11    7   18 1
    12    8   13 1
    13    8   18 1
    14    9   10 2
    15   10   16 1
    16   11   14 1
    17   11   20 1
    18   11   21 2
    19   12   14 1
    20   13   19 1
    21   14   19 1
    22   15   17 1
    23   16   17 1
    24    1   22 1
    25    2   23 1
    26    3   24 1
    27    9   25 1
    28    9   26 1
    29   10   27 1
    30   12   28 1
    31   12   29 1
    32   13   30 1
    33   13   31 1
    34   14   32 1
    35   15   33 1
    36   15   34 1
    37   16   35 1
    38   16   36 1
    39   17   37 1
    40   17   38 1
    41   19   39 1
    42   19   40 1
@<TRIPOS>PROPERTY_DATA
  Total_Score	| 10.6440
  Crash		| -1.0385
  Polar		| 6.5792

@<TRIPOS>MOLECULE
ligand_hydrophobic11_002
   40    42     0     0     0
SMALL
USER_CHARGES

@<TRIPOS>ATOM
1    C1      -27.4541  -14.7169   27.7377  C.ar  1 <0>        -0.0566
2    C2      -28.6543  -14.9477   27.0272  C.ar  1 <0>        -0.0375
3    C3      -27.9436  -12.3184   27.8055  C.ar  1 <0>        -0.0491
4    C4      -29.1329  -12.5638   27.1001  C.ar  1 <0>         0.0035
5    C5      -30.1496  -11.7294   26.6565  C.2   1 <0>        -0.0159
6    C6      -27.1123  -13.4076   28.1753  C.ar  1 <0>        -0.0467
7    C7      -29.4953  -13.8605   26.7383  C.ar  1 <0>         0.0470
8    C8      -31.0999  -12.5568   26.0657  C.2   1 <0>         0.0343
9    C9      -24.4155  -17.1837   31.1170  C.2   1 <0>        -0.1026
10   C10     -24.8614  -15.9504   31.3775  C.2   1 <0>        -0.0911
11   C11     -31.6431   -8.3266   25.9370  C.2   1 <0>         0.3223
12   C12     -30.2366  -10.2581   26.6882  C.3   1 <0>         0.0005
13   C13     -32.3663  -12.0367   25.5221  C.3   1 <0>         0.0374
14   C14     -31.6722   -9.7473   26.3440  C.3   1 <0>         0.1101
15   C15     -25.9192  -13.0889   29.0129  C.3   1 <0>        -0.0274
16   C16     -25.8069  -15.2246   30.5356  C.3   1 <0>        -0.0347
17   C17     -25.0520  -14.2259   29.6101  C.3   1 <0>        -0.0456
18   N1      -30.6890  -13.8403   26.1149  N.2   1 <0>        -0.3567
19   N2      -32.3034  -10.5727   25.2756  N.4   1 <0>        -0.2984
20   O1      -32.5293   -7.8498   25.0335  O.co2 1 <0>        -0.4795
21   O2      -30.9376   -7.4325   26.6651  O.co2 1 <0>        -0.2492
22   H1      -26.8389  -15.5190   27.9706  H     1 <0>         0.0621
23   H2      -28.9029  -15.8947   26.7260  H     1 <0>         0.0638
24   H3      -27.7132  -11.3559   28.0779  H     1 <0>         0.0627
25   H4      -23.7181  -17.5934   31.6990  H     1 <0>         0.0532
26   H5      -24.7471  -17.7015   30.3342  H     1 <0>         0.0532
27   H6      -24.4672  -15.4620   32.1570  H     1 <0>         0.0566
28   H7      -29.9511   -9.9031   27.6812  H     1 <0>         0.0334
29   H8      -29.5064   -9.8825   25.9660  H     1 <0>         0.0334
30   H9      -32.5932  -12.5291   24.5762  H     1 <0>         0.0488
31   H10     -33.1709  -12.2533   26.2270  H     1 <0>         0.0488
32   H11     -32.2915   -9.8139   27.2423  H     1 <0>         0.0579
33   H12     -25.2580  -12.4588   28.4036  H     1 <0>         0.0313
34   H13     -26.2571  -12.4774   29.8595  H     1 <0>         0.0313
35   H14     -26.5068  -14.6936   31.1882  H     1 <0>         0.0307
36   H15     -26.4075  -15.8990   29.9001  H     1 <0>         0.0307
37   H16     -24.5781  -14.7786   28.7946  H     1 <0>         0.0271
38   H17     -24.2545  -13.7295   30.1842  H     1 <0>         0.0271
39   H18     -31.7634  -10.4272   24.4203  H     1 <0>         0.1231
40   H19     -33.2600  -10.2377   25.1197  H     1 <0>         0.0000
@<TRIPOS>BOND
     1    1    2 ar
     2    1    6 ar
     3    2    7 ar
     4    3    4 ar
     5    3    6 ar
     6    4    5 1
     7    4    7 ar
     8    5    8 2
     9    5   12 1
    10    6   15 1
    11    7   18 1
    12    8   13 1
    13    8   18 1
    14    9   10 2
    15   10   16 1
    16   11   14 1
    17   11   20 1
    18   11   21 2
    19   12   14 1
    20   13   19 1
    21   14   19 1
    22   15   17 1
    23   16   17 1
    24    1   22 1
    25    2   23 1
    26    3   24 1
    27    9   25 1
    28    9   26 1
    29   10   27 1
    30   12   28 1
    31   12   29 1
    32   13   30 1
    33   13   31 1
    34   14   32 1
    35   15   33 1
    36   15   34 1
    37   16   35 1
    38   16   36 1
    39   17   37 1
    40   17   38 1
    41   19   39 1
    42   19   40 1
@<TRIPOS>PROPERTY_DATA
  Total_Score	| 10.2907
  Crash		| -1.4140
  Polar		| 6.5209

@<TRIPOS>MOLECULE
ligand_uncharged11_000
   31    33     0     0     0
SMALL
USER_CHARGES

@<TRIPOS>ATOM
1    C1      -29.4549  -15.8196   27.0729  C.ar  1 <0>        -0.0343
2    C2      -28.7268  -15.8088   28.2817  C.ar  1 <0>        -0.0180
3    C3      -28.9719  -13.3815   28.4431  C.ar  1 <0>        -0.0105
4    C4      -29.7379  -13.4060   27.2633  C.ar  1 <0>         0.0066
5    C5      -30.4112  -12.4159   26.5559  C.2   1 <0>        -0.0157
6    C6      -29.9668  -14.6045   26.5832  C.ar  1 <0>         0.0472
7    C7      -28.4695  -14.5930   28.9707  C.ar  1 <0>         0.1208
8    C8      -31.0394  -13.0644   25.4907  C.2   1 <0>         0.0343
9    C9      -31.5509   -8.8259   25.8685  C.2   1 <0>         0.3223
10   C10     -30.5398  -10.9642   26.8188  C.3   1 <0>         0.0005
11   C11     -31.9229  -12.3686   24.5343  C.3   1 <0>         0.0374
12   C12     -31.1103  -10.2084   25.5727  C.3   1 <0>         0.1101
13   C13     -26.6764  -15.3271   30.3962  C.3   1 <0>         0.0788
14   N1      -30.7342  -14.3765   25.5020  N.2   1 <0>        -0.3567
15   N2      -32.2288  -10.9710   24.9444  N.4   1 <0>        -0.2984
16   O1      -30.8791   -8.0897   26.7840  O.co2 1 <0>        -0.4795
17   O2      -32.2526   -8.1357   24.9372  O.co2 1 <0>        -0.2492
18   O3      -27.8520  -14.5242   30.1976  O.3   1 <0>        -0.4951
19   H1      -29.6366  -16.7000   26.5856  H     1 <0>         0.0639
20   H2      -28.4006  -16.6946   28.6707  H     1 <0>         0.0655
21   H3      -28.8164  -12.4994   28.9371  H     1 <0>         0.0661
22   H4      -31.1896  -10.8244   27.6868  H     1 <0>         0.0334
23   H5      -29.5532  -10.5603   27.0626  H     1 <0>         0.0334
24   H6      -31.4622  -12.3695   23.5467  H     1 <0>         0.0488
25   H7      -32.8676  -12.9102   24.4625  H     1 <0>         0.0488
26   H8      -30.3022  -10.1268   24.8398  H     1 <0>         0.0579
27   H9      -26.2122  -15.0272   31.3370  H     1 <0>         0.0660
28   H10     -25.9460  -15.1851   29.5952  H     1 <0>         0.0660
29   H11     -26.9383  -16.3843   30.4659  H     1 <0>         0.0660
30   H12     -32.5409  -10.4693   24.1084  H     1 <0>         0.1231
31   H13     -33.0073  -11.0031   25.6081  H     1 <0>         0.0000
@<TRIPOS>BOND
     1    1    2 ar
     2    1    6 ar
     3    2    7 ar
     4    3    4 ar
     5    3    7 ar
     6    4    5 1
     7    4    6 ar
     8    5    8 2
     9    5   10 1
    10    6   14 1
    11    7   18 1
    12    8   11 1
    13    8   14 1
    14    9   12 1
    15    9   16 1
    16    9   17 2
    17   10   12 1
    18   11   15 1
    19   12   15 1
    20   13   18 1
    21    1   19 1
    22    2   20 1
    23    3   21 1
    24   10   22 1
    25   10   23 1
    26   11   24 1
    27   11   25 1
    28   12   26 1
    29   13   27 1
    30   13   28 1
    31   13   29 1
    32   15   30 1
    33   15   31 1
@<TRIPOS>PROPERTY_DATA
  Total_Score	| 6.9296
  Crash		| -1.5509
  Polar		| 4.7105

@<TRIPOS>MOLECULE
ligand_uncharged11_001
   31    33     0     0     0
SMALL
USER_CHARGES

@<TRIPOS>ATOM
1    C1      -29.4930  -15.9098   26.7294  C.ar  1 <0>        -0.0343
2    C2      -28.6283  -15.9200   27.8512  C.ar  1 <0>        -0.0180
3    C3      -28.9241  -13.5103   28.1287  C.ar  1 <0>        -0.0105
4    C4      -29.7929  -13.5137   27.0226  C.ar  1 <0>         0.0066
5    C5      -30.5088  -12.5014   26.3933  C.2   1 <0>        -0.0157
6    C6      -30.0614  -14.6905   26.3233  C.ar  1 <0>         0.0472
7    C7      -28.3277  -14.7196   28.5524  C.ar  1 <0>         0.1208
8    C8      -31.2080  -13.1224   25.3589  C.2   1 <0>         0.0343
9    C9      -31.6759   -8.8757   25.8313  C.2   1 <0>         0.3223
10   C10     -30.6033  -11.0480   26.6869  C.3   1 <0>         0.0005
11   C11     -32.1185  -12.3840   24.4604  C.3   1 <0>         0.0374
12   C12     -31.2471  -10.2552   25.5006  C.3   1 <0>         0.1101
13   C13     -26.6630  -15.7425   29.9890  C.3   1 <0>         0.0788
14   N1      -30.9005  -14.4339   25.3004  N.2   1 <0>        -0.3567
15   N2      -32.4030  -11.0016   24.9281  N.4   1 <0>        -0.2984
16   O1      -32.3350   -8.1467   24.9013  O.co2 1 <0>        -0.4795
17   O2      -31.0826   -8.1908   26.8362  O.co2 1 <0>        -0.2492
18   O3      -27.5106  -14.6364   29.6592  O.3   1 <0>        -0.4951
19   H1      -29.7114  -16.7788   26.2312  H     1 <0>         0.0639
20   H2      -28.2182  -16.8073   28.1583  H     1 <0>         0.0655
21   H3      -28.7349  -12.6394   28.6257  H     1 <0>         0.0661
22   H4      -31.1926  -10.9142   27.5952  H     1 <0>         0.0334
23   H5      -29.5997  -10.6577   26.8682  H     1 <0>         0.0334
24   H6      -31.6783  -12.3509   23.4643  H     1 <0>         0.0488
25   H7      -33.0675  -12.9231   24.3993  H     1 <0>         0.0488
26   H8      -30.4909  -10.1536   24.7167  H     1 <0>         0.0579
27   H9      -25.9989  -15.4531   30.8183  H     1 <0>         0.0660
28   H10     -26.0350  -16.0310   29.1445  H     1 <0>         0.0660
29   H11     -27.2574  -16.5951   30.3175  H     1 <0>         0.0660
30   H12     -32.7702  -10.4890   24.1260  H     1 <0>         0.1231
31   H13     -33.1362  -11.0497   25.6439  H     1 <0>         0.0000
@<TRIPOS>BOND
     1    1    2 ar
     2    1    6 ar
     3    2    7 ar
     4    3    4 ar
     5    3    7 ar
     6    4    5 1
     7    4    6 ar
     8    5    8 2
     9    5   10 1
    10    6   14 1
    11    7   18 1
    12    8   11 1
    13    8   14 1
    14    9   12 1
    15    9   16 1
    16    9   17 2
    17   10   12 1
    18   11   15 1
    19   12   15 1
    20   13   18 1
    21    1   19 1
    22    2   20 1
    23    3   21 1
    24   10   22 1
    25   10   23 1
    26   11   24 1
    27   11   25 1
    28   12   26 1
    29   13   27 1
    30   13   28 1
    31   13   29 1
    32   15   30 1
    33   15   31 1
@<TRIPOS>PROPERTY_DATA
  Total_Score	| 6.8350
  Crash		| -1.2365
  Polar		| 4.1310

@<TRIPOS>MOLECULE
ligand_uncharged11_002
   31    33     0     0     0
SMALL
USER_CHARGES

@<TRIPOS>ATOM
1    C1      -29.1582  -15.7491   26.8174  C.ar  1 <0>        -0.0343
2    C2      -28.2207  -15.6659   27.8716  C.ar  1 <0>        -0.0180
3    C3      -28.6902  -13.2804   28.1423  C.ar  1 <0>        -0.0105
4    C4      -29.6131  -13.3763   27.0839  C.ar  1 <0>         0.0066
5    C5      -30.4058  -12.4269   26.4531  C.2   1 <0>        -0.0157
6    C6      -29.8423  -14.5842   26.4267  C.ar  1 <0>         0.0472
7    C7      -27.9647  -14.4333   28.5175  C.ar  1 <0>         0.1208
8    C8      -31.1184  -13.1075   25.4647  C.2   1 <0>         0.0343
9    C9      -31.6463   -8.8645   25.8373  C.2   1 <0>         0.3223
10   C10     -30.5141  -10.9743   26.6978  C.3   1 <0>         0.0005
11   C11     -32.0863  -12.4285   24.5812  C.3   1 <0>         0.0374
12   C12     -31.2295  -10.2454   25.5146  C.3   1 <0>         0.1101
13   C13     -25.7942  -13.7825   29.1827  C.3   1 <0>         0.0788
14   N1      -30.7368  -14.4013   25.4373  N.2   1 <0>        -0.3567
15   N2      -32.3955  -11.0462   25.0393  N.4   1 <0>        -0.2984
16   O1      -32.3264   -8.1367   24.9208  O.co2 1 <0>        -0.4795
17   O2      -31.0748   -8.1865   26.8618  O.co2 1 <0>        -0.2492
18   O3      -27.0549  -14.3795   29.5416  O.3   1 <0>        -0.4951
19   H1      -29.3369  -16.6387   26.3478  H     1 <0>         0.0639
20   H2      -27.7188  -16.5050   28.1664  H     1 <0>         0.0655
21   H3      -28.5481  -12.3879   28.6218  H     1 <0>         0.0661
22   H4      -31.0626  -10.8284   27.6325  H     1 <0>         0.0334
23   H5      -29.5086  -10.5602   26.8178  H     1 <0>         0.0334
24   H6      -31.6967  -12.4020   23.5632  H     1 <0>         0.0488
25   H7      -33.0185  -12.9948   24.5692  H     1 <0>         0.0488
26   H8      -30.5148  -10.1672   24.6942  H     1 <0>         0.0579
27   H9      -25.1381  -13.8155   30.0549  H     1 <0>         0.0660
28   H10     -25.9101  -12.7340   28.8973  H     1 <0>         0.0660
29   H11     -25.3123  -14.3316   28.3693  H     1 <0>         0.0660
30   H12     -32.8440  -10.5580   24.2597  H     1 <0>         0.1231
31   H13     -33.0686  -11.1097   25.8089  H     1 <0>         0.0000
@<TRIPOS>BOND
     1    1    2 ar
     2    1    6 ar
     3    2    7 ar
     4    3    4 ar
     5    3    7 ar
     6    4    5 1
     7    4    6 ar
     8    5    8 2
     9    5   10 1
    10    6   14 1
    11    7   18 1
    12    8   11 1
    13    8   14 1
    14    9   12 1
    15    9   16 1
    16    9   17 2
    17   10   12 1
    18   11   15 1
    19   12   15 1
    20   13   18 1
    21    1   19 1
    22    2   20 1
    23    3   21 1
    24   10   22 1
    25   10   23 1
    26   11   24 1
    27   11   25 1
    28   12   26 1
    29   13   27 1
    30   13   28 1
    31   13   29 1
    32   15   30 1
    33   15   31 1
@<TRIPOS>PROPERTY_DATA
  Total_Score	| 6.6904
  Crash		| -0.8923
  Polar		| 4.0950

@<TRIPOS>MOLECULE
ligand_hydrophobic16_000
   40    42     0     0     0
SMALL
USER_CHARGES

@<TRIPOS>ATOM
1    C1      -28.3361  -15.8071   27.7455  C.ar  1 <0>        -0.0563
2    C2      -29.2290  -15.8306   26.6547  C.ar  1 <0>        -0.0375
3    C3      -28.6958  -13.4093   28.0293  C.ar  1 <0>        -0.0488
4    C4      -29.5998  -13.4462   26.9539  C.ar  1 <0>         0.0035
5    C5      -30.3773  -12.4637   26.3544  C.2   1 <0>        -0.0159
6    C6      -28.0419  -14.5993   28.4402  C.ar  1 <0>        -0.0429
7    C7      -29.8653  -14.6374   26.2762  C.ar  1 <0>         0.0470
8    C8      -31.1243  -13.1157   25.3732  C.2   1 <0>         0.0343
9    C9      -26.4050  -15.7112   30.0191  C.2   1 <0>        -0.0810
10   C10     -25.4275  -16.3699   29.3538  C.2   1 <0>        -0.0793
11   C11     -31.6466   -8.8829   25.8195  C.2   1 <0>         0.3223
12   C12     -30.4618  -11.0089   26.6195  C.3   1 <0>         0.0005
13   C13     -32.1333  -12.4187   24.5544  C.3   1 <0>         0.0374
14   C14     -31.2245  -10.2577   25.4774  C.3   1 <0>         0.1101
15   C15     -24.8368  -17.5730   29.9379  C.3   1 <0>        -0.0440
16   C16     -24.8734  -15.8963   28.0800  C.3   1 <0>        -0.0440
17   C17     -27.0847  -14.4979   29.5826  C.3   1 <0>        -0.0092
18   N1      -30.7791  -14.4179   25.3125  N.2   1 <0>        -0.3567
19   N2      -32.4133  -11.0507   25.0623  N.4   1 <0>        -0.2984
20   O1      -32.3600   -8.1561   24.9293  O.co2 1 <0>        -0.4795
21   O2      -31.1096   -8.2279   26.8725  O.co2 1 <0>        -0.2492
22   H1      -27.9018  -16.6871   28.0279  H     1 <0>         0.0621
23   H2      -29.4182  -16.7024   26.1562  H     1 <0>         0.0638
24   H3      -28.5254  -12.5223   28.5107  H     1 <0>         0.0627
25   H4      -26.6910  -16.0596   30.9088  H     1 <0>         0.0575
26   H5      -30.9514  -10.8725   27.5857  H     1 <0>         0.0334
27   H6      -29.4516  -10.6031   26.6924  H     1 <0>         0.0334
28   H7      -31.7876  -12.3648   23.5207  H     1 <0>         0.0488
29   H8      -33.0691  -12.9826   24.5781  H     1 <0>         0.0488
30   H9      -30.5533  -10.1714   24.6183  H     1 <0>         0.0579
31   H10     -25.0696  -18.4380   29.3164  H     1 <0>         0.0274
32   H11     -23.7521  -17.4677   29.9810  H     1 <0>         0.0274
33   H12     -25.1889  -17.7823   30.9526  H     1 <0>         0.0274
34   H13     -24.4034  -14.9225   28.2302  H     1 <0>         0.0274
35   H14     -24.1198  -16.5742   27.6670  H     1 <0>         0.0274
36   H15     -25.6504  -15.7957   27.3245  H     1 <0>         0.0274
37   H16     -26.3214  -13.7545   29.3382  H     1 <0>         0.0356
38   H17     -27.6464  -14.1036   30.4368  H     1 <0>         0.0356
39   H18     -32.9110  -10.5571   24.3215  H     1 <0>         0.1231
40   H19     -33.0326  -11.1313   25.8732  H     1 <0>         0.0000
@<TRIPOS>BOND
     1    1    2 ar
     2    1    6 ar
     3    2    7 ar
     4    3    4 ar
     5    3    6 ar
     6    4    5 1
     7    4    7 ar
     8    5    8 2
     9    5   12 1
    10    6   17 1
    11    7   18 1
    12    8   13 1
    13    8   18 1
    14    9   10 2
    15    9   17 1
    16   10   15 1
    17   10   16 1
    18   11   14 1
    19   11   20 1
    20   11   21 2
    21   12   14 1
    22   13   19 1
    23   14   19 1
    24    1   22 1
    25    2   23 1
    26    3   24 1
    27    9   25 1
    28   12   26 1
    29   12   27 1
    30   13   28 1
    31   13   29 1
    32   14   30 1
    33   15   31 1
    34   15   32 1
    35   15   33 1
    36   16   34 1
    37   16   35 1
    38   16   36 1
    39   17   37 1
    40   17   38 1
    41   19   39 1
    42   19   40 1
@<TRIPOS>PROPERTY_DATA
  Total_Score	| 8.6482
  Crash		| -1.1472
  Polar		| 4.0607

@<TRIPOS>MOLECULE
ligand_hydrophobic16_001
   40    42     0     0     0
SMALL
USER_CHARGES

@<TRIPOS>ATOM
1    C1      -26.2194  -11.1553   28.2041  C.ar  1 <0>        -0.0563
2    C2      -27.1495  -10.0949   28.1905  C.ar  1 <0>        -0.0375
3    C3      -27.7916  -12.5894   26.9989  C.ar  1 <0>        -0.0488
4    C4      -28.7123  -11.5242   26.9952  C.ar  1 <0>         0.0035
5    C5      -30.0011  -11.4015   26.4945  C.2   1 <0>        -0.0159
6    C6      -26.5272  -12.4127   27.6178  C.ar  1 <0>        -0.0429
7    C7      -28.3997  -10.3001   27.5873  C.ar  1 <0>         0.0470
8    C8      -30.4065  -10.0968   26.7781  C.2   1 <0>         0.0343
9    C9      -25.3398  -14.0828   28.9578  C.2   1 <0>        -0.0810
10   C10     -25.9779  -15.1512   29.4922  C.2   1 <0>        -0.0793
11   C11     -33.0971  -12.6301   24.6358  C.2   1 <0>         0.3223
12   C12     -30.8318  -12.3726   25.7582  C.3   1 <0>         0.0005
13   C13     -31.7272   -9.5706   26.3857  C.3   1 <0>         0.0374
14   C14     -32.3171  -11.8931   25.6517  C.3   1 <0>         0.1101
15   C15     -25.6798  -15.5652   30.8614  C.3   1 <0>        -0.0440
16   C16     -26.9974  -15.9102   28.7669  C.3   1 <0>        -0.0440
17   C17     -25.5215  -13.5141   27.6289  C.3   1 <0>        -0.0092
18   N1      -29.4377   -9.4524   27.4509  N.2   1 <0>        -0.3567
19   N2      -32.3742  -10.4328   25.3624  N.4   1 <0>        -0.2984
20   O1      -32.5554  -13.6339   23.9072  O.co2 1 <0>        -0.4795
21   O2      -34.4298  -12.4181   24.5379  O.co2 1 <0>        -0.2492
22   H1      -25.3100  -11.0022   28.6449  H     1 <0>         0.0621
23   H2      -26.9181   -9.1922   28.6082  H     1 <0>         0.0638
24   H3      -28.0439  -13.4785   26.5585  H     1 <0>         0.0627
25   H4      -24.6868  -13.6001   29.5320  H     1 <0>         0.0575
26   H5      -30.3908  -12.4901   24.7659  H     1 <0>         0.0334
27   H6      -30.8037  -13.3395   26.2677  H     1 <0>         0.0334
28   H7      -32.3577   -9.5094   27.2722  H     1 <0>         0.0488
29   H8      -31.6134   -8.5686   25.9678  H     1 <0>         0.0488
30   H9      -32.8049  -12.0697   26.6152  H     1 <0>         0.0579
31   H10     -26.5759  -15.4427   31.4717  H     1 <0>         0.0274
32   H11     -25.3819  -16.6158   30.8752  H     1 <0>         0.0274
33   H12     -24.8744  -14.9915   31.3312  H     1 <0>         0.0274
34   H13     -26.5576  -16.3937   27.8907  H     1 <0>         0.0274
35   H14     -27.4446  -16.6967   29.3835  H     1 <0>         0.0274
36   H15     -27.8058  -15.2502   28.4431  H     1 <0>         0.0274
37   H16     -25.7866  -14.2954   26.9128  H     1 <0>         0.0356
38   H17     -24.5629  -13.1119   27.2911  H     1 <0>         0.0356
39   H18     -33.3544  -10.1487   25.2598  H     1 <0>         0.1231
40   H19     -31.8903  -10.2780   24.4742  H     1 <0>         0.0000
@<TRIPOS>BOND
     1    1    2 ar
     2    1    6 ar
     3    2    7 ar
     4    3    4 ar
     5    3    6 ar
     6    4    5 1
     7    4    7 ar
     8    5    8 2
     9    5   12 1
    10    6   17 1
    11    7   18 1
    12    8   13 1
    13    8   18 1
    14    9   10 2
    15    9   17 1
    16   10   15 1
    17   10   16 1
    18   11   14 1
    19   11   20 1
    20   11   21 2
    21   12   14 1
    22   13   19 1
    23   14   19 1
    24    1   22 1
    25    2   23 1
    26    3   24 1
    27    9   25 1
    28   12   26 1
    29   12   27 1
    30   13   28 1
    31   13   29 1
    32   14   30 1
    33   15   31 1
    34   15   32 1
    35   15   33 1
    36   16   34 1
    37   16   35 1
    38   16   36 1
    39   17   37 1
    40   17   38 1
    41   19   39 1
    42   19   40 1
@<TRIPOS>PROPERTY_DATA
  Total_Score	| 8.5146
  Crash		| -1.1742
  Polar		| 2.8220

@<TRIPOS>MOLECULE
ligand_hydrophobic16_002
   40    42     0     0     0
SMALL
USER_CHARGES

@<TRIPOS>ATOM
1    C1      -26.3758  -10.8921   28.3518  C.ar  1 <0>        -0.0563
2    C2      -27.3065   -9.8401   28.2251  C.ar  1 <0>        -0.0375
3    C3      -27.9094  -12.4146   27.2031  C.ar  1 <0>        -0.0488
4    C4      -28.8242  -11.3534   27.0785  C.ar  1 <0>         0.0035
5    C5      -30.0922  -11.2694   26.5167  C.2   1 <0>        -0.0159
6    C6      -26.6638  -12.1884   27.8426  C.ar  1 <0>        -0.0429
7    C7      -28.5287  -10.0881   27.5820  C.ar  1 <0>         0.0470
8    C8      -30.5032   -9.9474   26.6784  C.2   1 <0>         0.0343
9    C9      -25.9522  -14.0833   29.2219  C.2   1 <0>        -0.0810
10   C10     -25.6450  -15.3865   29.4208  C.2   1 <0>        -0.0793
11   C11     -33.1231  -12.6282   24.6324  C.2   1 <0>         0.3223
12   C12     -30.8980  -12.2939   25.8287  C.3   1 <0>         0.0005
13   C13     -31.8012   -9.4510   26.1981  C.3   1 <0>         0.0374
14   C14     -32.3794  -11.8311   25.6323  C.3   1 <0>         0.1101
15   C15     -25.9357  -16.0215   30.7057  C.3   1 <0>        -0.0440
16   C16     -25.0196  -16.2116   28.3893  C.3   1 <0>        -0.0440
17   C17     -25.6936  -13.3049   28.0115  C.3   1 <0>        -0.0092
18   N1      -29.5590   -9.2545   27.3465  N.2   1 <0>        -0.3567
19   N2      -32.4398  -10.3938   25.2442  N.4   1 <0>        -0.2984
20   O1      -34.4588  -12.4739   24.5197  O.co2 1 <0>        -0.4795
21   O2      -32.5368  -13.6089   23.9049  O.co2 1 <0>        -0.2492
22   H1      -25.4876  -10.7132   28.8288  H     1 <0>         0.0621
23   H2      -27.0891   -8.9087   28.5947  H     1 <0>         0.0638
24   H3      -28.1552  -13.3362   26.8406  H     1 <0>         0.0627
25   H4      -26.3483  -13.5795   29.9880  H     1 <0>         0.0575
26   H5      -30.4158  -12.4825   24.8677  H     1 <0>         0.0334
27   H6      -30.8907  -13.2203   26.4117  H     1 <0>         0.0334
28   H7      -32.4538   -9.2968   27.0567  H     1 <0>         0.0488
29   H8      -31.6571   -8.4924   25.6904  H     1 <0>         0.0488
30   H9      -32.9034  -11.9423   26.5857  H     1 <0>         0.0579
31   H10     -26.6335  -16.8489   30.5585  H     1 <0>         0.0274
32   H11     -25.0115  -16.4123   31.1377  H     1 <0>         0.0274
33   H12     -26.3799  -15.3419   31.4389  H     1 <0>         0.0274
34   H13     -24.0618  -15.7787   28.0946  H     1 <0>         0.0274
35   H14     -24.8305  -17.2316   28.7317  H     1 <0>         0.0274
36   H15     -25.6663  -16.2773   27.5130  H     1 <0>         0.0274
37   H16     -25.7372  -13.9305   27.1163  H     1 <0>         0.0356
38   H17     -24.6747  -12.9176   28.0681  H     1 <0>         0.0356
39   H18     -33.4202  -10.1179   25.1184  H     1 <0>         0.1231
40   H19     -31.9480  -10.2962   24.3561  H     1 <0>         0.0000
@<TRIPOS>BOND
     1    1    2 ar
     2    1    6 ar
     3    2    7 ar
     4    3    4 ar
     5    3    6 ar
     6    4    5 1
     7    4    7 ar
     8    5    8 2
     9    5   12 1
    10    6   17 1
    11    7   18 1
    12    8   13 1
    13    8   18 1
    14    9   10 2
    15    9   17 1
    16   10   15 1
    17   10   16 1
    18   11   14 1
    19   11   20 1
    20   11   21 2
    21   12   14 1
    22   13   19 1
    23   14   19 1
    24    1   22 1
    25    2   23 1
    26    3   24 1
    27    9   25 1
    28   12   26 1
    29   12   27 1
    30   13   28 1
    31   13   29 1
    32   14   30 1
    33   15   31 1
    34   15   32 1
    35   15   33 1
    36   16   34 1
    37   16   35 1
    38   16   36 1
    39   17   37 1
    40   17   38 1
    41   19   39 1
    42   19   40 1
@<TRIPOS>PROPERTY_DATA
  Total_Score	| 8.4040
  Crash		| -1.3808
  Polar		| 2.8766

@<TRIPOS>MOLECULE
ligand_uncharged21_000
   42    45     0     0     0
SMALL
USER_CHARGES

@<TRIPOS>ATOM
1    C1      -29.6111  -15.9167   26.9986  C.ar  1 <0>        -0.0334
2    C2      -30.4550  -15.6667   25.8967  C.ar  1 <0>        -0.0359
3    C3      -29.5933  -13.5322   27.5597  C.ar  1 <0>        -0.0259
4    C4      -30.4565  -13.3001   26.4781  C.ar  1 <0>         0.0050
5    C5      -29.1897  -14.8611   27.8356  C.ar  1 <0>         0.1062
6    C6      -31.0653  -12.1878   25.9786  C.2   1 <0>        -0.0158
7    C7      -30.8813  -14.3461   25.6589  C.ar  1 <0>         0.0471
8    C8      -31.7828  -12.6012   24.9106  C.cat 1 <0>         0.0343
9    C9      -31.8727   -8.4876   25.8692  C.2   1 <0>         0.3223
10   C10     -30.9736  -10.8023   26.4196  C.3   1 <0>         0.0005
11   C11     -32.6900  -11.7379   24.1826  C.3   1 <0>         0.0374
12   C12     -25.7604  -13.9258   29.5363  C.3   1 <0>         0.0440
13   C13     -25.8636  -15.7715   27.8806  C.3   1 <0>         0.0440
14   C14     -24.6673  -13.2587   28.6641  C.3   1 <0>         0.0621
15   C15     -24.8267  -15.0115   27.0277  C.3   1 <0>         0.0621
16   C16     -32.1438   -9.9332   25.8559  C.3   1 <0>         0.1101
17   N1      -31.6598  -13.8742   24.7278  N.2   1 <0>        -0.3567
18   N2      -32.4377  -10.2994   24.4511  N.3   1 <0>        -0.2984
19   N3      -26.5394  -14.8526   28.7586  N.pl3 1 <0>        -0.1722
20   O1      -32.6683   -7.6606   25.1586  O.co2 1 <0>        -0.4795
21   O2      -31.0200   -7.9298   26.7571  O.co2 1 <0>        -0.2492
22   O3      -28.6299  -14.3018   30.4277  O.2   1 <0>        -0.1528
23   O4      -28.2523  -16.6861   29.6896  O.2   1 <0>        -0.1528
24   O5      -23.9658  -14.2302   27.8674  O.3   1 <0>        -0.3771
25   S1      -28.1435  -15.1840   29.1909  S.o2  1 <0>         0.0610
26   H1      -29.3129  -16.8820   27.1707  H     1 <0>         0.0638
27   H2      -30.7665  -16.4286   25.2889  H     1 <0>         0.0639
28   H3      -29.2726  -12.7577   28.1423  H     1 <0>         0.0644
29   H4      -30.9941  -10.7597   27.5095  H     1 <0>         0.0334
30   H5      -30.0117  -10.4139   26.0803  H     1 <0>         0.0334
31   H6      -32.5540  -11.8987   23.1121  H     1 <0>         0.0488
32   H7      -33.7228  -11.9869   24.4443  H     1 <0>         0.0488
33   H8      -25.2895  -14.4720   30.3595  H     1 <0>         0.0466
34   H9      -26.3805  -13.1284   29.9635  H     1 <0>         0.0466
35   H10     -26.5602  -16.2735   27.2064  H     1 <0>         0.0466
36   H11     -25.3608  -16.5353   28.4781  H     1 <0>         0.0466
37   H12     -25.1125  -12.5008   28.0137  H     1 <0>         0.0573
38   H13     -23.9463  -12.7636   29.3153  H     1 <0>         0.0573
39   H14     -24.2203  -15.7219   26.4711  H     1 <0>         0.0573
40   H15     -25.3332  -14.3589   26.3200  H     1 <0>         0.0573
41   H16     -33.0445  -10.1264   26.4428  H     1 <0>         0.0579
42   H17     -31.6607   -9.9993   23.8681  H     1 <0>         0.1231
@<TRIPOS>BOND
     1    1    2 ar
     2    1    5 ar
     3    2    7 ar
     4    3    4 ar
     5    3    5 ar
     6    4    6 2
     7    4    7 ar
     8    5   25 1
     9    6    8 1
    10    6   10 1
    11    7   17 2
    12    8   11 1
    13    8   17 1
    14    9   16 1
    15    9   20 1
    16    9   21 2
    17   10   16 1
    18   11   18 1
    19   12   14 1
    20   12   19 1
    21   13   15 1
    22   13   19 1
    23   14   24 1
    24   15   24 1
    25   16   18 1
    26   19   25 1
    27   22   25 2
    28   23   25 2
    29    1   26 1
    30    2   27 1
    31    3   28 1
    32   10   29 1
    33   10   30 1
    34   11   31 1
    35   11   32 1
    36   12   33 1
    37   12   34 1
    38   13   35 1
    39   13   36 1
    40   14   37 1
    41   14   38 1
    42   15   39 1
    43   15   40 1
    44   16   41 1
    45   18   42 1
@<TRIPOS>PROPERTY_DATA
  Total_Score	| 11.2832
  Crash		| -2.8229
  Polar		| 6.5905

@<TRIPOS>MOLECULE
ligand_uncharged21_001
   42    45     0     0     0
SMALL
USER_CHARGES

@<TRIPOS>ATOM
1    C1      -29.5367  -15.9973   26.9786  C.ar  1 <0>        -0.0334
2    C2      -30.4086  -15.7585   25.8982  C.ar  1 <0>        -0.0359
3    C3      -29.5348  -13.6107   27.5391  C.ar  1 <0>        -0.0259
4    C4      -30.4312  -13.3956   26.4776  C.ar  1 <0>         0.0050
5    C5      -29.1236  -14.9335   27.8195  C.ar  1 <0>         0.1062
6    C6      -31.0685  -12.2932   26.0001  C.2   1 <0>        -0.0158
7    C7      -30.8615  -14.4478   25.6749  C.ar  1 <0>         0.0471
8    C8      -31.8151  -12.7152   24.9591  C.cat 1 <0>         0.0343
9    C9      -31.8329   -8.5723   25.8829  C.2   1 <0>         0.3223
10   C10     -30.9715  -10.9088   26.4405  C.3   1 <0>         0.0005
11   C11     -32.6646  -11.8389   24.1817  C.3   1 <0>         0.0374
12   C12     -25.7089  -14.0317   29.5707  C.3   1 <0>         0.0440
13   C13     -25.8298  -15.8658   27.8954  C.3   1 <0>         0.0440
14   C14     -24.5857  -13.3850   28.7243  C.3   1 <0>         0.0621
15   C15     -24.7271  -15.1449   27.0868  C.3   1 <0>         0.0621
16   C16     -32.1141  -10.0230   25.8423  C.3   1 <0>         0.1101
17   N1      -31.6769  -13.9828   24.7650  N.2   1 <0>        -0.3567
18   N2      -32.3861  -10.4036   24.4327  N.3   1 <0>        -0.2984
19   N3      -26.4927  -14.9346   28.7707  N.pl3 1 <0>        -0.1722
20   O1      -30.9933   -8.0248   26.7920  O.co2 1 <0>        -0.4795
21   O2      -32.5301   -7.7354   25.0835  O.co2 1 <0>        -0.2492
22   O3      -28.5752  -14.3483   30.4114  O.2   1 <0>        -0.1528
23   O4      -28.2351  -16.7510   29.7043  O.2   1 <0>        -0.1528
24   O5      -23.8782  -14.3760   27.9555  O.3   1 <0>        -0.3771
25   S1      -28.0989  -15.2527   29.1901  S.o2  1 <0>         0.0610
26   H1      -29.2130  -16.9525   27.1498  H     1 <0>         0.0638
27   H2      -30.7241  -16.5280   25.3054  H     1 <0>         0.0639
28   H3      -29.2115  -12.8247   28.1063  H     1 <0>         0.0644
29   H4      -31.0279  -10.8667   27.5322  H     1 <0>         0.0334
30   H5      -29.9914  -10.5358   26.1335  H     1 <0>         0.0334
31   H6      -32.4837  -12.0271   23.1234  H     1 <0>         0.0488
32   H7      -33.7122  -12.0565   24.4016  H     1 <0>         0.0488
33   H8      -25.2647  -14.5932   30.3973  H     1 <0>         0.0466
34   H9      -26.3193  -13.2260   29.9886  H     1 <0>         0.0466
35   H10     -26.5236  -16.3238   27.1834  H     1 <0>         0.0466
36   H11     -25.3842  -16.6612   28.4969  H     1 <0>         0.0466
37   H12     -25.0019  -12.6261   28.0570  H     1 <0>         0.0573
38   H13     -23.8754  -12.8948   29.3897  H     1 <0>         0.0573
39   H14     -24.1172  -15.8843   26.5638  H     1 <0>         0.0573
40   H15     -25.1776  -14.4848   26.3422  H     1 <0>         0.0573
41   H16     -33.0296  -10.2038   26.4121  H     1 <0>         0.0579
42   H17     -31.5926  -10.1166   23.8597  H     1 <0>         0.1231
@<TRIPOS>BOND
     1    1    2 ar
     2    1    5 ar
     3    2    7 ar
     4    3    4 ar
     5    3    5 ar
     6    4    6 2
     7    4    7 ar
     8    5   25 1
     9    6    8 1
    10    6   10 1
    11    7   17 2
    12    8   11 1
    13    8   17 1
    14    9   16 1
    15    9   20 1
    16    9   21 2
    17   10   16 1
    18   11   18 1
    19   12   14 1
    20   12   19 1
    21   13   15 1
    22   13   19 1
    23   14   24 1
    24   15   24 1
    25   16   18 1
    26   19   25 1
    27   22   25 2
    28   23   25 2
    29    1   26 1
    30    2   27 1
    31    3   28 1
    32   10   29 1
    33   10   30 1
    34   11   31 1
    35   11   32 1
    36   12   33 1
    37   12   34 1
    38   13   35 1
    39   13   36 1
    40   14   37 1
    41   14   38 1
    42   15   39 1
    43   15   40 1
    44   16   41 1
    45   18   42 1
@<TRIPOS>PROPERTY_DATA
  Total_Score	| 10.8588
  Crash		| -2.8507
  Polar		| 6.3009

@<TRIPOS>MOLECULE
ligand_uncharged21_002
   42    45     0     0     0
SMALL
USER_CHARGES

@<TRIPOS>ATOM
1    C1      -29.5222  -15.9218   26.9827  C.ar  1 <0>        -0.0334
2    C2      -30.4321  -15.7032   25.9269  C.ar  1 <0>        -0.0359
3    C3      -29.5062  -13.5318   27.4958  C.ar  1 <0>        -0.0259
4    C4      -30.4359  -13.3329   26.4574  C.ar  1 <0>         0.0050
5    C5      -29.0649  -14.8438   27.7810  C.ar  1 <0>         0.1062
6    C6      -31.0713  -12.2374   25.9769  C.2   1 <0>        -0.0158
7    C7      -30.8885  -14.3986   25.6884  C.ar  1 <0>         0.0471
8    C8      -31.8551  -12.6622   24.9660  C.cat 1 <0>         0.0343
9    C9      -31.7968   -8.5319   25.8684  C.2   1 <0>         0.3223
10   C10     -30.8945  -10.8406   26.3349  C.3   1 <0>         0.0005
11   C11     -32.9628  -11.8570   24.4897  C.3   1 <0>         0.0374
12   C12     -25.7661  -16.1143   27.8101  C.3   1 <0>         0.0440
13   C13     -25.9206  -13.6366   28.0173  C.3   1 <0>         0.0440
14   C14     -24.2860  -15.9414   27.3979  C.3   1 <0>         0.0621
15   C15     -24.4222  -13.5563   27.6458  C.3   1 <0>         0.0621
16   C16     -32.1247   -9.9726   25.9341  C.3   1 <0>         0.1101
17   N1      -31.7295  -13.9390   24.7938  N.2   1 <0>        -0.3567
18   N2      -32.6721  -10.4055   24.6198  N.3   1 <0>        -0.2984
19   N3      -26.3209  -14.9506   28.4507  N.pl3 1 <0>        -0.1722
20   O1      -30.9284   -7.9682   26.7412  O.co2 1 <0>        -0.4795
21   O2      -32.5104   -7.7141   25.0641  O.co2 1 <0>        -0.2492
22   O3      -28.1155  -14.0562   30.2367  O.2   1 <0>        -0.1528
23   O4      -28.1088  -16.5101   29.7384  O.2   1 <0>        -0.1528
24   O5      -24.0617  -14.6551   26.7912  O.3   1 <0>        -0.3771
25   S1      -27.9003  -15.0932   29.0489  S.o2  1 <0>         0.0610
26   H1      -29.1932  -16.8757   27.1608  H     1 <0>         0.0638
27   H2      -30.7658  -16.4817   25.3591  H     1 <0>         0.0639
28   H3      -29.1665  -12.7350   28.0330  H     1 <0>         0.0644
29   H4      -30.7329  -10.7518   27.4112  H     1 <0>         0.0334
30   H5      -29.9998  -10.4857   25.8196  H     1 <0>         0.0334
31   H6      -33.1278  -12.0629   23.4363  H     1 <0>         0.0488
32   H7      -33.8693  -12.1086   25.0434  H     1 <0>         0.0488
33   H8      -26.3528  -16.3395   26.9137  H     1 <0>         0.0466
34   H9      -25.8265  -16.9759   28.4812  H     1 <0>         0.0466
35   H10     -26.1133  -12.8968   28.7971  H     1 <0>         0.0466
36   H11     -26.5050  -13.3571   27.1373  H     1 <0>         0.0466
37   H12     -23.6333  -16.0689   28.2636  H     1 <0>         0.0573
38   H13     -24.0212  -16.7090   26.6715  H     1 <0>         0.0573
39   H14     -24.2304  -12.6274   27.1043  H     1 <0>         0.0573
40   H15     -23.8052  -13.5560   28.5502  H     1 <0>         0.0573
41   H16     -32.9126  -10.1044   26.6847  H     1 <0>         0.0579
42   H17     -32.0083  -10.1439   23.8907  H     1 <0>         0.1231
@<TRIPOS>BOND
     1    1    2 ar
     2    1    5 ar
     3    2    7 ar
     4    3    4 ar
     5    3    5 ar
     6    4    6 2
     7    4    7 ar
     8    5   25 1
     9    6    8 1
    10    6   10 1
    11    7   17 2
    12    8   11 1
    13    8   17 1
    14    9   16 1
    15    9   20 1
    16    9   21 2
    17   10   16 1
    18   11   18 1
    19   12   14 1
    20   12   19 1
    21   13   15 1
    22   13   19 1
    23   14   24 1
    24   15   24 1
    25   16   18 1
    26   19   25 1
    27   22   25 2
    28   23   25 2
    29    1   26 1
    30    2   27 1
    31    3   28 1
    32   10   29 1
    33   10   30 1
    34   11   31 1
    35   11   32 1
    36   12   33 1
    37   12   34 1
    38   13   35 1
    39   13   36 1
    40   14   37 1
    41   14   38 1
    42   15   39 1
    43   15   40 1
    44   16   41 1
    45   18   42 1
@<TRIPOS>PROPERTY_DATA
  Total_Score	| 10.0815
  Crash		| -2.6950
  Polar		| 5.8114

@<TRIPOS>MOLECULE
ligand_uncharged25_000
   29    31     0     0     0
SMALL
USER_CHARGES

@<TRIPOS>ATOM
1    C1      -27.1147  -14.4824   28.0184  C.ar  1 <0>        -0.0497
2    C2      -28.3691  -14.8290   27.4606  C.ar  1 <0>        -0.0373
3    C3      -27.6049  -12.1087   27.6965  C.ar  1 <0>        -0.0422
4    C4      -28.8389  -12.4710   27.1439  C.ar  1 <0>         0.0037
5    C5      -26.7220  -13.1184   28.1730  C.ar  1 <0>         0.0372
6    C6      -29.8685  -11.7502   26.6374  C.2   1 <0>        -0.0159
7    C7      -29.2314  -13.8012   27.0377  C.ar  1 <0>         0.0470
8    C8      -30.8341  -12.6314   26.3147  C.cat 1 <0>         0.0343
9    C9      -31.5912   -8.4595   25.8108  C.2   1 <0>         0.3223
10   C10     -29.9940  -10.3105   26.5384  C.3   1 <0>         0.0005
11   C11     -32.1670  -12.2228   25.8975  C.3   1 <0>         0.0374
12   C12     -31.2401   -9.8827   25.6953  C.3   1 <0>         0.1101
13   C13     -25.4166  -12.7674   28.7888  C.3   1 <0>         0.3488
14   N1      -30.4322  -13.8454   26.5288  N.2   1 <0>        -0.3567
15   N2      -32.3912  -10.7557   26.0516  N.3   1 <0>        -0.2984
16   O1      -32.5037   -7.9165   24.9652  O.co2 1 <0>        -0.4795
17   O2      -30.9180   -7.6207   26.6308  O.co2 1 <0>        -0.2492
18   F1      -25.3770  -11.4903   29.3052  F     1 <0>        -0.1826
19   F2      -25.1039  -13.5983   29.8392  F     1 <0>        -0.1826
20   Cl1     -24.1372  -12.8925   27.5858  Cl    1 <0>        -0.0424
21   H1      -26.4933  -15.2312   28.3240  H     1 <0>         0.0623
22   H2      -28.6480  -15.8062   27.3705  H     1 <0>         0.0638
23   H3      -27.3589  -11.1191   27.7598  H     1 <0>         0.0629
24   H4      -30.0639   -9.9166   27.5545  H     1 <0>         0.0334
25   H5      -29.0860   -9.9050   26.0666  H     1 <0>         0.0334
26   H6      -32.3161  -12.5051   24.8528  H     1 <0>         0.0488
27   H7      -32.9123  -12.7375   26.5033  H     1 <0>         0.0488
28   H8      -30.9977  -10.0638   24.6424  H     1 <0>         0.0579
29   H9      -33.2329  -10.4710   25.5402  H     1 <0>         0.1231
@<TRIPOS>BOND
     1    1    2 ar
     2    1    5 ar
     3    2    7 ar
     4    3    4 ar
     5    3    5 ar
     6    4    6 2
     7    4    7 ar
     8    5   13 1
     9    6    8 1
    10    6   10 1
    11    7   14 2
    12    8   11 1
    13    8   14 1
    14    9   12 1
    15    9   16 1
    16    9   17 2
    17   10   12 1
    18   11   15 1
    19   12   15 1
    20   13   18 1
    21   13   19 1
    22   13   20 1
    23    1   21 1
    24    2   22 1
    25    3   23 1
    26   10   24 1
    27   10   25 1
    28   11   26 1
    29   11   27 1
    30   12   28 1
    31   15   29 1
@<TRIPOS>PROPERTY_DATA
  Total_Score	| 6.5076
  Crash		| -0.9179
  Polar		| 4.4271

@<TRIPOS>MOLECULE
ligand_uncharged25_001
   29    31     0     0     0
SMALL
USER_CHARGES

@<TRIPOS>ATOM
1    C1      -27.0157  -14.5395   28.2453  C.ar  1 <0>        -0.0497
2    C2      -28.2685  -14.8846   27.7120  C.ar  1 <0>        -0.0373
3    C3      -27.4675  -12.1746   27.8790  C.ar  1 <0>        -0.0422
4    C4      -28.7178  -12.5217   27.3404  C.ar  1 <0>         0.0037
5    C5      -26.6050  -13.1827   28.3780  C.ar  1 <0>         0.0372
6    C6      -29.7386  -11.8049   26.8134  C.2   1 <0>        -0.0159
7    C7      -29.1097  -13.8534   27.2583  C.ar  1 <0>         0.0470
8    C8      -30.6871  -12.6944   26.4734  C.cat 1 <0>         0.0343
9    C9      -31.4602   -8.5423   25.8347  C.2   1 <0>         0.3223
10   C10     -29.8704  -10.3627   26.6947  C.3   1 <0>         0.0005
11   C11     -31.9783  -12.2996   25.9296  C.3   1 <0>         0.0374
12   C12     -31.0683   -9.9635   25.7786  C.3   1 <0>         0.1101
13   C13     -25.2681  -12.8224   28.9172  C.3   1 <0>         0.3488
14   N1      -30.2993  -13.9037   26.7185  N.2   1 <0>        -0.3567
15   N2      -32.2375  -10.8392   26.0628  N.3   1 <0>        -0.2984
16   O1      -30.7830   -7.6320   26.5662  O.co2 1 <0>        -0.4795
17   O2      -32.3877   -8.0847   24.9735  O.co2 1 <0>        -0.2492
18   F1      -25.2225  -11.5578   29.4287  F     1 <0>        -0.1826
19   F2      -24.8735  -13.6438   29.9329  F     1 <0>        -0.1826
20   Cl1     -24.0863  -12.9173   27.6346  Cl    1 <0>        -0.0424
21   H1      -26.3968  -15.2867   28.5532  H     1 <0>         0.0623
22   H2      -28.5563  -15.8674   27.6366  H     1 <0>         0.0638
23   H3      -27.2081  -11.1871   27.9092  H     1 <0>         0.0629
24   H4      -30.0157   -9.9638   27.6986  H     1 <0>         0.0334
25   H5      -28.9544   -9.9322   26.2850  H     1 <0>         0.0334
26   H6      -32.0266  -12.5900   24.8747  H     1 <0>         0.0488
27   H7      -32.7727  -12.8281   26.4639  H     1 <0>         0.0488
28   H8      -30.7655  -10.1351   24.7438  H     1 <0>         0.0579
29   H9      -33.0429  -10.5773   25.4907  H     1 <0>         0.1231
@<TRIPOS>BOND
     1    1    2 ar
     2    1    5 ar
     3    2    7 ar
     4    3    4 ar
     5    3    5 ar
     6    4    6 2
     7    4    7 ar
     8    5   13 1
     9    6    8 1
    10    6   10 1
    11    7   14 2
    12    8   11 1
    13    8   14 1
    14    9   12 1
    15    9   16 1
    16    9   17 2
    17   10   12 1
    18   11   15 1
    19   12   15 1
    20   13   18 1
    21   13   19 1
    22   13   20 1
    23    1   21 1
    24    2   22 1
    25    3   23 1
    26   10   24 1
    27   10   25 1
    28   11   26 1
    29   11   27 1
    30   12   28 1
    31   15   29 1
@<TRIPOS>PROPERTY_DATA
  Total_Score	| 6.4384
  Crash		| -0.9376
  Polar		| 4.4769

@<TRIPOS>MOLECULE
ligand_uncharged25_002
   29    31     0     0     0
SMALL
USER_CHARGES

@<TRIPOS>ATOM
1    C1      -28.6733  -15.9121   27.5090  C.ar  1 <0>        -0.0497
2    C2      -29.5934  -15.8605   26.4360  C.ar  1 <0>        -0.0373
3    C3      -28.9256  -13.5108   27.8756  C.ar  1 <0>        -0.0422
4    C4      -29.8427  -13.4661   26.8047  C.ar  1 <0>         0.0037
5    C5      -28.3203  -14.7434   28.2380  C.ar  1 <0>         0.0372
6    C6      -30.5499  -12.4672   26.2144  C.2   1 <0>        -0.0159
7    C7      -30.1618  -14.6226   26.1005  C.ar  1 <0>         0.0470
8    C8      -31.2758  -13.0500   25.2394  C.cat 1 <0>         0.0343
9    C9      -31.7379   -8.8568   25.8890  C.2   1 <0>         0.3223
10   C10     -30.5907  -11.0493   26.5387  C.3   1 <0>         0.0005
11   C11     -32.2446  -12.3336   24.4292  C.3   1 <0>         0.0374
12   C12     -31.3217  -10.2072   25.4410  C.3   1 <0>         0.1101
13   C13     -27.3062  -14.8289   29.3354  C.3   1 <0>         0.3488
14   N1      -31.0116  -14.3131   25.1540  N.2   1 <0>        -0.3567
15   N2      -32.5013  -10.9565   24.9208  N.3   1 <0>        -0.2984
16   O1      -31.2287   -8.2915   27.0055  O.co2 1 <0>        -0.4795
17   O2      -32.3926   -8.0376   25.0242  O.co2 1 <0>        -0.2492
18   F1      -27.2154  -13.6967   30.1085  F     1 <0>        -0.1826
19   F2      -27.6033  -15.8596   30.1938  F     1 <0>        -0.1826
20   Cl1     -25.7069  -15.1084   28.6582  Cl    1 <0>        -0.0424
21   H1      -28.2511  -16.8114   27.7434  H     1 <0>         0.0623
22   H2      -29.8295  -16.7025   25.9131  H     1 <0>         0.0638
23   H3      -28.6972  -12.6373   28.3638  H     1 <0>         0.0629
24   H4      -31.0966  -10.9506   27.5021  H     1 <0>         0.0334
25   H5      -29.5706  -10.6722   26.6420  H     1 <0>         0.0334
26   H6      -31.8914  -12.2937   23.3969  H     1 <0>         0.0488
27   H7      -33.1909  -12.8731   24.4408  H     1 <0>         0.0488
28   H8      -30.6282  -10.0575   24.6113  H     1 <0>         0.0579
29   H9      -32.9750  -10.4272   24.1819  H     1 <0>         0.1231
@<TRIPOS>BOND
     1    1    2 ar
     2    1    5 ar
     3    2    7 ar
     4    3    4 ar
     5    3    5 ar
     6    4    6 2
     7    4    7 ar
     8    5   13 1
     9    6    8 1
    10    6   10 1
    11    7   14 2
    12    8   11 1
    13    8   14 1
    14    9   12 1
    15    9   16 1
    16    9   17 2
    17   10   12 1
    18   11   15 1
    19   12   15 1
    20   13   18 1
    21   13   19 1
    22   13   20 1
    23    1   21 1
    24    2   22 1
    25    3   23 1
    26   10   24 1
    27   10   25 1
    28   11   26 1
    29   11   27 1
    30   12   28 1
    31   15   29 1
@<TRIPOS>PROPERTY_DATA
  Total_Score	| 6.3585
  Crash		| -1.0882
  Polar		| 3.9977

@<TRIPOS>MOLECULE
ligand_uncharged29_000
   29    31     0     0     0
SMALL
USER_CHARGES

@<TRIPOS>ATOM
1    C1      -27.0485  -14.6133   28.5308  C.ar  1 <0>        -0.0496
2    C2      -28.2863  -14.9185   27.9264  C.ar  1 <0>        -0.0371
3    C3      -27.3917  -12.2400   28.0793  C.ar  1 <0>        -0.0421
4    C4      -28.6552  -12.5409   27.5134  C.ar  1 <0>         0.0038
5    C5      -26.5673  -13.2709   28.5880  C.ar  1 <0>         0.0149
6    C6      -29.6848  -11.7769   26.9650  C.2   1 <0>        -0.0158
7    C7      -29.0653  -13.8792   27.4106  C.ar  1 <0>         0.0470
8    C8      -30.6208  -12.7046   26.4797  C.2   1 <0>         0.0343
9    C9      -25.3237  -13.0251   29.1558  C.2   1 <0>         0.1502
10   C10     -31.4326   -8.5437   25.8984  C.2   1 <0>         0.3223
11   C11     -29.8814  -10.3159   26.8306  C.3   1 <0>         0.0005
12   C12     -31.8533  -12.3206   25.7718  C.3   1 <0>         0.0374
13   C13     -31.3435   -9.9391   26.4120  C.3   1 <0>         0.1101
14   N1      -30.2388  -13.9617   26.7758  N.2   1 <0>        -0.3567
15   N2      -31.8487  -10.8886   25.3873  N.4   1 <0>        -0.2984
16   O1      -30.8450   -7.5439   26.5998  O.co2 1 <0>        -0.4795
17   O2      -24.4484  -12.3876   28.5828  O.2   1 <0>        -0.2957
18   O3      -32.3549   -8.1768   24.9658  O.co2 1 <0>        -0.2492
19   H1      -26.5005  -15.3907   28.9069  H     1 <0>         0.0625
20   H2      -28.6147  -15.8948   27.8555  H     1 <0>         0.0638
21   H3      -27.0916  -11.2578   28.1124  H     1 <0>         0.0631
22   H4      -25.0402  -13.5045   29.9845  H     1 <0>         0.1081
23   H5      -29.6560   -9.8485   27.7898  H     1 <0>         0.0334
24   H6      -29.1720   -9.9458   26.0937  H     1 <0>         0.0334
25   H7      -31.9398  -12.9125   24.8548  H     1 <0>         0.0488
26   H8      -32.7157  -12.5337   26.4071  H     1 <0>         0.0488
27   H9      -32.0058   -9.9805   27.2831  H     1 <0>         0.0579
28   H10     -31.2416  -10.7951   24.5651  H     1 <0>         0.1231
29   H11     -32.8030  -10.6312   25.1306  H     1 <0>         0.0000
@<TRIPOS>BOND
     1    1    2 ar
     2    1    5 ar
     3    2    7 ar
     4    3    4 ar
     5    3    5 ar
     6    4    6 1
     7    4    7 ar
     8    5    9 1
     9    6    8 2
    10    6   11 1
    11    7   14 1
    12    8   12 1
    13    8   14 1
    14    9   17 2
    15   10   13 1
    16   10   16 1
    17   10   18 2
    18   11   13 1
    19   12   15 1
    20   13   15 1
    21    1   19 1
    22    2   20 1
    23    3   21 1
    24    9   22 1
    25   11   23 1
    26   11   24 1
    27   12   25 1
    28   12   26 1
    29   13   27 1
    30   15   28 1
    31   15   29 1
@<TRIPOS>PROPERTY_DATA
  Total_Score	| 9.8094
  Crash		| -0.3742
  Polar		| 7.5273

@<TRIPOS>MOLECULE
ligand_uncharged29_001
   29    31     0     0     0
SMALL
USER_CHARGES

@<TRIPOS>ATOM
1    C1      -27.1145  -14.4931   28.3760  C.ar  1 <0>        -0.0496
2    C2      -28.3285  -14.8327   27.7452  C.ar  1 <0>        -0.0371
3    C3      -27.4947  -12.1174   27.8873  C.ar  1 <0>        -0.0421
4    C4      -28.7126  -12.4688   27.2986  C.ar  1 <0>         0.0038
5    C5      -26.6873  -13.1394   28.4413  C.ar  1 <0>         0.0149
6    C6      -29.7475  -11.7187   26.7498  C.2   1 <0>        -0.0158
7    C7      -29.1240  -13.8050   27.2156  C.ar  1 <0>         0.0470
8    C8      -30.7116  -12.6295   26.3144  C.2   1 <0>         0.0343
9    C9      -25.5108  -12.8275   29.0923  C.2   1 <0>         0.1502
10   C10     -31.5372   -8.4456   25.9486  C.2   1 <0>         0.3223
11   C11     -29.9320  -10.2553   26.6465  C.3   1 <0>         0.0005
12   C12     -31.9863  -12.2256   25.6858  C.3   1 <0>         0.0374
13   C13     -31.4256   -9.8566   26.3838  C.3   1 <0>         0.1101
14   N1      -30.3295  -13.8860   26.6146  N.2   1 <0>        -0.3567
15   N2      -32.0176  -10.7744   25.3695  N.4   1 <0>        -0.2984
16   O1      -32.4264   -8.0601   25.0034  O.co2 1 <0>        -0.4795
17   O2      -24.5933  -12.2486   28.5086  O.2   1 <0>        -0.2957
18   O3      -30.8057   -7.4867   26.5602  O.co2 1 <0>        -0.2492
19   H1      -26.5325  -15.2400   28.7680  H     1 <0>         0.0625
20   H2      -28.6185  -15.8118   27.6795  H     1 <0>         0.0638
21   H3      -27.2239  -11.1361   27.9586  H     1 <0>         0.0631
22   H4      -25.2851  -13.2929   29.9439  H     1 <0>         0.1081
23   H5      -29.6031   -9.7954   27.5836  H     1 <0>         0.0334
24   H6      -29.2980   -9.8951   25.8376  H     1 <0>         0.0334
25   H7      -32.1144  -12.7816   24.7606  H     1 <0>         0.0488
26   H8      -32.8118  -12.4732   26.3602  H     1 <0>         0.0488
27   H9      -31.9840   -9.9599   27.3193  H     1 <0>         0.0579
28   H10     -31.5072  -10.6369   24.4971  H     1 <0>         0.1231
29   H11     -32.9942  -10.5036   25.2134  H     1 <0>         0.0000
@<TRIPOS>BOND
     1    1    2 ar
     2    1    5 ar
     3    2    7 ar
     4    3    4 ar
     5    3    5 ar
     6    4    6 1
     7    4    7 ar
     8    5    9 1
     9    6    8 2
    10    6   11 1
    11    7   14 1
    12    8   12 1
    13    8   14 1
    14    9   17 2
    15   10   13 1
    16   10   16 1
    17   10   18 2
    18   11   13 1
    19   12   15 1
    20   13   15 1
    21    1   19 1
    22    2   20 1
    23    3   21 1
    24    9   22 1
    25   11   23 1
    26   11   24 1
    27   12   25 1
    28   12   26 1
    29   13   27 1
    30   15   28 1
    31   15   29 1
@<TRIPOS>PROPERTY_DATA
  Total_Score	| 9.7925
  Crash		| -0.3274
  Polar		| 7.5310

@<TRIPOS>MOLECULE
ligand_uncharged29_002
   29    31     0     0     0
SMALL
USER_CHARGES

@<TRIPOS>ATOM
1    C1      -27.0340  -14.6488   27.7831  C.ar  1 <0>        -0.0496
2    C2      -28.3356  -14.9486   27.3227  C.ar  1 <0>        -0.0371
3    C3      -27.4735  -12.2547   27.5802  C.ar  1 <0>        -0.0421
4    C4      -28.7683  -12.5632   27.1164  C.ar  1 <0>         0.0038
5    C5      -26.5888  -13.3122   27.9269  C.ar  1 <0>         0.0149
6    C6      -29.8321  -11.7669   26.7168  C.2   1 <0>        -0.0158
7    C7      -29.1920  -13.8827   26.9964  C.ar  1 <0>         0.0470
8    C8      -30.8527  -12.6442   26.3458  C.2   1 <0>         0.0343
9    C9      -25.3042  -13.0590   28.4019  C.2   1 <0>         0.1502
10   C10     -31.4787   -8.4359   25.9223  C.2   1 <0>         0.3223
11   C11     -29.9425  -10.2963   26.6147  C.3   1 <0>         0.0005
12   C12     -32.1458  -12.1828   25.8059  C.3   1 <0>         0.0374
13   C13     -31.4208   -9.8331   26.3916  C.3   1 <0>         0.1101
14   N1      -30.4555  -13.9183   26.5279  N.2   1 <0>        -0.3567
15   N2      -32.1155  -10.7410   25.4364  N.4   1 <0>        -0.2984
16   O1      -30.7496   -7.4775   26.5373  O.co2 1 <0>        -0.4795
17   O2      -24.7717  -11.9678   28.3268  O.2   1 <0>        -0.2957
18   O3      -32.3594   -8.0495   24.9723  O.co2 1 <0>        -0.2492
19   H1      -26.4141  -15.4335   28.0007  H     1 <0>         0.0625
20   H2      -28.6476  -15.9155   27.2174  H     1 <0>         0.0638
21   H3      -27.1983  -11.2739   27.6659  H     1 <0>         0.0631
22   H4      -24.7422  -13.8052   28.7445  H     1 <0>         0.1081
23   H5      -29.5571   -9.8444   27.5343  H     1 <0>         0.0334
24   H6      -29.3085   -9.9813   25.7822  H     1 <0>         0.0334
25   H7      -32.3822  -12.7532   24.9037  H     1 <0>         0.0488
26   H8      -32.9325  -12.3597   26.5450  H     1 <0>         0.0488
27   H9      -31.9474   -9.8793   27.3524  H     1 <0>         0.0579
28   H10     -31.6376  -10.6585   24.5376  H     1 <0>         0.1231
29   H11     -33.0806  -10.4201   25.3210  H     1 <0>         0.0000
@<TRIPOS>BOND
     1    1    2 ar
     2    1    5 ar
     3    2    7 ar
     4    3    4 ar
     5    3    5 ar
     6    4    6 1
     7    4    7 ar
     8    5    9 1
     9    6    8 2
    10    6   11 1
    11    7   14 1
    12    8   12 1
    13    8   14 1
    14    9   17 2
    15   10   13 1
    16   10   16 1
    17   10   18 2
    18   11   13 1
    19   12   15 1
    20   13   15 1
    21    1   19 1
    22    2   20 1
    23    3   21 1
    24    9   22 1
    25   11   23 1
    26   11   24 1
    27   12   25 1
    28   12   26 1
    29   13   27 1
    30   15   28 1
    31   15   29 1
@<TRIPOS>PROPERTY_DATA
  Total_Score	| 9.1736
  Crash		| -0.5142
  Polar		| 7.4734

@<TRIPOS>MOLECULE
ligand_uncharged39_000
   40    43     0     0     0
SMALL
USER_CHARGES

@<TRIPOS>ATOM
1    C1      -29.5023  -16.3139   26.9816  C.ar  1 <0>        -0.0563
2    C2      -30.3814  -16.0425   25.9204  C.ar  1 <0>        -0.0375
3    C3      -29.4364  -13.9475   27.5770  C.ar  1 <0>        -0.0488
4    C4      -30.3172  -13.6790   26.5133  C.ar  1 <0>         0.0035
5    C5      -29.0101  -15.2794   27.8246  C.ar  1 <0>        -0.0414
6    C6      -30.8811  -12.5523   26.0077  C.2   1 <0>        -0.0159
7    C7      -30.7771  -14.7155   25.7075  C.ar  1 <0>         0.0470
8    C8      -31.6569  -12.9580   24.9830  C.cat 1 <0>         0.0343
9    C9      -31.6348   -8.8198   25.9199  C.2   1 <0>         0.3223
10   C10     -30.7520  -11.1712   26.4350  C.3   1 <0>         0.0005
11   C11     -32.5059  -12.0799   24.2151  C.3   1 <0>         0.0374
12   C12     -25.5765  -16.3654   29.2956  C.3   1 <0>        -0.0288
13   C13     -26.6177  -15.9106   28.2398  C.3   1 <0>        -0.0420
14   C14     -25.5664  -15.4027   30.5106  C.3   1 <0>         0.0477
15   C15     -27.8391  -14.6793   30.0953  C.3   1 <0>         0.0544
16   C16     -28.0152  -15.6513   28.8854  C.3   1 <0>         0.0077
17   C17     -31.3153  -10.1569   25.3814  C.3   1 <0>         0.1101
18   N1      -31.5603  -14.2272   24.7794  N.2   1 <0>        -0.3567
19   N2      -32.5422  -10.6933   24.7294  N.3   1 <0>        -0.2984
20   O1      -32.2613   -7.9150   25.1462  O.co2 1 <0>        -0.4795
21   O2      -31.0914   -8.3754   27.0765  O.co2 1 <0>        -0.2492
22   O3      -26.8904  -15.2097   31.0429  O.3   1 <0>        -0.3792
23   H1      -29.2165  -17.2733   27.1269  H     1 <0>         0.0621
24   H2      -30.7257  -16.8004   25.3195  H     1 <0>         0.0638
25   H3      -29.1112  -13.1622   28.1319  H     1 <0>         0.0627
26   H4      -31.2860  -11.0542   27.3809  H     1 <0>         0.0334
27   H5      -29.6937  -10.9460   26.6128  H     1 <0>         0.0334
28   H6      -32.1682  -12.0719   23.1818  H     1 <0>         0.0488
29   H7      -33.5271  -12.4612   24.2431  H     1 <0>         0.0488
30   H8      -25.8294  -17.3743   29.6433  H     1 <0>         0.0288
31   H9      -24.5840  -16.3979   28.8407  H     1 <0>         0.0288
32   H10     -26.2622  -14.9940   27.7618  H     1 <0>         0.0272
33   H11     -26.6949  -16.6871   27.4747  H     1 <0>         0.0272
34   H12     -24.9411  -15.8292   31.2966  H     1 <0>         0.0560
35   H13     -25.1336  -14.4384   30.2289  H     1 <0>         0.0560
36   H14     -27.5036  -13.6895   29.7664  H     1 <0>         0.0566
37   H15     -28.8044  -14.5662   30.6003  H     1 <0>         0.0566
38   H16     -28.3623  -16.5986   29.3318  H     1 <0>         0.0371
39   H17     -30.5569  -10.0146   24.6021  H     1 <0>         0.0579
40   H18     -32.8151  -10.0769   23.9652  H     1 <0>         0.1231
@<TRIPOS>BOND
     1    1    2 ar
     2    1    5 ar
     3    2    7 ar
     4    3    4 ar
     5    3    5 ar
     6    4    6 2
     7    4    7 ar
     8    5   16 1
     9    6    8 1
    10    6   10 1
    11    7   18 2
    12    8   11 1
    13    8   18 1
    14    9   17 1
    15    9   20 1
    16    9   21 2
    17   10   17 1
    18   11   19 1
    19   12   13 1
    20   12   14 1
    21   13   16 1
    22   14   22 1
    23   15   16 1
    24   15   22 1
    25   17   19 1
    26    1   23 1
    27    2   24 1
    28    3   25 1
    29   10   26 1
    30   10   27 1
    31   11   28 1
    32   11   29 1
    33   12   30 1
    34   12   31 1
    35   13   32 1
    36   13   33 1
    37   14   34 1
    38   14   35 1
    39   15   36 1
    40   15   37 1
    41   16   38 1
    42   17   39 1
    43   19   40 1
@<TRIPOS>PROPERTY_DATA
  Total_Score	| 9.0244
  Crash		| -2.3319
  Polar		| 3.8095

@<TRIPOS>MOLECULE
ligand_uncharged39_001
   40    43     0     0     0
SMALL
USER_CHARGES

@<TRIPOS>ATOM
1    C1      -29.4700  -16.2866   26.9747  C.ar  1 <0>        -0.0563
2    C2      -30.3483  -16.0371   25.9023  C.ar  1 <0>        -0.0375
3    C3      -29.4105  -13.9133   27.5268  C.ar  1 <0>        -0.0488
4    C4      -30.2952  -13.6745   26.4603  C.ar  1 <0>         0.0035
5    C5      -28.9808  -15.2388   27.8021  C.ar  1 <0>        -0.0414
6    C6      -30.8778  -12.5500   25.9607  C.2   1 <0>        -0.0159
7    C7      -30.7489  -14.7164   25.6624  C.ar  1 <0>         0.0470
8    C8      -31.6608  -12.9672   24.9450  C.cat 1 <0>         0.0343
9    C9      -31.6779   -8.8315   25.9428  C.2   1 <0>         0.3223
10   C10     -30.7817  -11.1798   26.4214  C.3   1 <0>         0.0005
11   C11     -32.5551  -12.0910   24.2232  C.3   1 <0>         0.0374
12   C12     -25.6779  -16.4326   29.4957  C.3   1 <0>        -0.0288
13   C13     -26.6465  -16.0248   28.3567  C.3   1 <0>        -0.0420
14   C14     -25.6065  -15.3212   30.5708  C.3   1 <0>         0.0477
15   C15     -27.8103  -14.5109   30.0194  C.3   1 <0>         0.0544
16   C16     -28.0355  -15.5937   28.9146  C.3   1 <0>         0.0077
17   C17     -31.3849  -10.1674   25.3902  C.3   1 <0>         0.1101
18   N1      -31.5488  -14.2352   24.7481  N.2   1 <0>        -0.3567
19   N2      -32.6268  -10.7236   24.7843  N.3   1 <0>        -0.2984
20   O1      -31.1209   -8.4015   27.0990  O.co2 1 <0>        -0.4795
21   O2      -32.2843   -7.9101   25.1594  O.co2 1 <0>        -0.2492
22   O3      -26.9258  -14.9811   31.0489  O.3   1 <0>        -0.3792
23   H1      -29.1922  -17.2515   27.1470  H     1 <0>         0.0621
24   H2      -30.6988  -16.8050   25.3258  H     1 <0>         0.0638
25   H3      -29.0970  -13.1137   28.0750  H     1 <0>         0.0627
26   H4      -31.3117  -11.1048   27.3729  H     1 <0>         0.0334
27   H5      -29.7321  -10.9221   26.5978  H     1 <0>         0.0334
28   H6      -32.2262  -12.0419   23.1847  H     1 <0>         0.0488
29   H7      -33.5632  -12.5099   24.2510  H     1 <0>         0.0488
30   H8      -26.0320  -17.3562   29.9605  H     1 <0>         0.0288
31   H9      -24.6810  -16.6175   29.0854  H     1 <0>         0.0288
32   H10     -26.2084  -15.2015   27.7849  H     1 <0>         0.0272
33   H11     -26.7575  -16.8747   27.6773  H     1 <0>         0.0272
34   H12     -25.0191  -15.6751   31.4206  H     1 <0>         0.0560
35   H13     -25.1085  -14.4356   30.1668  H     1 <0>         0.0560
36   H14     -27.4010  -13.5870   29.5950  H     1 <0>         0.0566
37   H15     -28.7739  -14.2725   30.4790  H     1 <0>         0.0566
38   H16     -28.4687  -16.4535   29.4368  H     1 <0>         0.0371
39   H17     -30.6537  -10.0254   24.5911  H     1 <0>         0.0579
40   H18     -32.9664  -10.1034   24.0423  H     1 <0>         0.1231
@<TRIPOS>BOND
     1    1    2 ar
     2    1    5 ar
     3    2    7 ar
     4    3    4 ar
     5    3    5 ar
     6    4    6 2
     7    4    7 ar
     8    5   16 1
     9    6    8 1
    10    6   10 1
    11    7   18 2
    12    8   11 1
    13    8   18 1
    14    9   17 1
    15    9   20 1
    16    9   21 2
    17   10   17 1
    18   11   19 1
    19   12   13 1
    20   12   14 1
    21   13   16 1
    22   14   22 1
    23   15   16 1
    24   15   22 1
    25   17   19 1
    26    1   23 1
    27    2   24 1
    28    3   25 1
    29   10   26 1
    30   10   27 1
    31   11   28 1
    32   11   29 1
    33   12   30 1
    34   12   31 1
    35   13   32 1
    36   13   33 1
    37   14   34 1
    38   14   35 1
    39   15   36 1
    40   15   37 1
    41   16   38 1
    42   17   39 1
    43   19   40 1
@<TRIPOS>PROPERTY_DATA
  Total_Score	| 8.6325
  Crash		| -2.4850
  Polar		| 3.8434

@<TRIPOS>MOLECULE
ligand_uncharged39_002
   40    43     0     0     0
SMALL
USER_CHARGES

@<TRIPOS>ATOM
1    C1      -29.2171  -16.1612   26.7992  C.ar  1 <0>        -0.0563
2    C2      -30.2578  -15.9502   25.8716  C.ar  1 <0>        -0.0375
3    C3      -29.2144  -13.7834   27.3753  C.ar  1 <0>        -0.0488
4    C4      -30.2516  -13.5834   26.4419  C.ar  1 <0>         0.0035
5    C5      -28.6665  -15.0875   27.5552  C.ar  1 <0>        -0.0414
6    C6      -30.9391  -12.4933   26.0103  C.2   1 <0>        -0.0159
7    C7      -30.7435  -14.6500   25.6996  C.ar  1 <0>         0.0470
8    C8      -31.7935  -12.9426   25.0660  C.cat 1 <0>         0.0343
9    C9      -31.7697   -8.7729   25.8760  C.2   1 <0>         0.3223
10   C10     -30.8281  -11.1016   26.4145  C.3   1 <0>         0.0005
11   C11     -32.6453  -12.0814   24.2776  C.3   1 <0>         0.0374
12   C12     -25.4267  -14.6917   29.7945  C.3   1 <0>        -0.0288
13   C13     -26.6186  -14.1918   28.9350  C.3   1 <0>        -0.0420
14   C14     -25.9414  -15.5870   30.9474  C.3   1 <0>         0.0477
15   C15     -27.9356  -16.1936   29.7154  C.3   1 <0>         0.0544
16   C16     -27.4971  -15.3899   28.4547  C.3   1 <0>         0.0077
17   C17     -31.4756  -10.1328   25.3691  C.3   1 <0>         0.1101
18   N1      -31.6373  -14.2059   24.8559  N.2   1 <0>        -0.3567
19   N2      -32.7301  -10.7050   24.8139  N.3   1 <0>        -0.2984
20   O1      -32.3754   -7.8894   25.0458  O.co2 1 <0>        -0.4795
21   O2      -31.1518   -8.2735   26.9702  O.co2 1 <0>        -0.2492
22   O3      -26.7851  -16.6499   30.4596  O.3   1 <0>        -0.3792
23   H1      -28.8494  -17.1118   26.8903  H     1 <0>         0.0621
24   H2      -30.6330  -16.7237   25.3246  H     1 <0>         0.0638
25   H3      -28.8618  -12.9768   27.8896  H     1 <0>         0.0627
26   H4      -31.3126  -10.9863   27.3840  H     1 <0>         0.0334
27   H5      -29.7743  -10.8385   26.5241  H     1 <0>         0.0334
28   H6      -32.2622  -12.0467   23.2575  H     1 <0>         0.0488
29   H7      -33.6525  -12.4958   24.2602  H     1 <0>         0.0488
30   H8      -24.7538  -15.2758   29.1645  H     1 <0>         0.0288
31   H9      -24.8721  -13.8407   30.1936  H     1 <0>         0.0288
32   H10     -27.2166  -13.5020   29.5368  H     1 <0>         0.0272
33   H11     -26.2365  -13.6463   28.0676  H     1 <0>         0.0272
34   H12     -25.0847  -16.0329   31.4625  H     1 <0>         0.0560
35   H13     -26.4913  -14.9840   31.6769  H     1 <0>         0.0560
36   H14     -28.5715  -15.5780   30.3581  H     1 <0>         0.0566
37   H15     -28.5109  -17.0773   29.4322  H     1 <0>         0.0566
38   H16     -26.8237  -16.0375   27.8760  H     1 <0>         0.0371
39   H17     -30.7734  -10.0134   24.5425  H     1 <0>         0.0579
40   H18     -33.1038  -10.1091   24.0705  H     1 <0>         0.1231
@<TRIPOS>BOND
     1    1    2 ar
     2    1    5 ar
     3    2    7 ar
     4    3    4 ar
     5    3    5 ar
     6    4    6 2
     7    4    7 ar
     8    5   16 1
     9    6    8 1
    10    6   10 1
    11    7   18 2
    12    8   11 1
    13    8   18 1
    14    9   17 1
    15    9   20 1
    16    9   21 2
    17   10   17 1
    18   11   19 1
    19   12   13 1
    20   12   14 1
    21   13   16 1
    22   14   22 1
    23   15   16 1
    24   15   22 1
    25   17   19 1
    26    1   23 1
    27    2   24 1
    28    3   25 1
    29   10   26 1
    30   10   27 1
    31   11   28 1
    32   11   29 1
    33   12   30 1
    34   12   31 1
    35   13   32 1
    36   13   33 1
    37   14   34 1
    38   14   35 1
    39   15   36 1
    40   15   37 1
    41   16   38 1
    42   17   39 1
    43   19   40 1
@<TRIPOS>PROPERTY_DATA
  Total_Score	| 8.3632
  Crash		| -2.5695
  Polar		| 4.0002

@<TRIPOS>MOLECULE
ligand_uncharged47_000
   47    50     0     0     0
SMALL
USER_CHARGES

@<TRIPOS>ATOM
1    C1      -25.6746  -17.5892   30.2837  C.1   1 <0>         0.0659
2    C2      -26.4937  -10.8804   28.6518  C.ar  1 <0>        -0.0563
3    C3      -27.3680   -9.8052   28.3799  C.ar  1 <0>        -0.0375
4    C4      -28.0364  -12.4372   27.5699  C.ar  1 <0>        -0.0489
5    C5      -28.8925  -11.3592   27.2909  C.ar  1 <0>         0.0035
6    C6      -26.8146  -12.2106   28.2597  C.ar  1 <0>        -0.0436
7    C7      -30.1329  -11.2785   26.6704  C.2   1 <0>        -0.0159
8    C8      -28.5705  -10.0684   27.7043  C.ar  1 <0>         0.0470
9    C9      -30.5149   -9.9419   26.7476  C.2   1 <0>         0.0343
10   C10     -33.0941  -12.6123   24.6634  C.2   1 <0>         0.3223
11   C11     -30.9420  -12.3200   26.0071  C.3   1 <0>         0.0005
12   C12     -31.8178   -9.4561   26.2685  C.3   1 <0>         0.0374
13   C13     -24.4028  -15.2363   27.6025  C.3   1 <0>        -0.0513
14   C14     -25.0133  -16.4809   28.2896  C.3   1 <0>        -0.0374
15   C15     -25.6679  -15.1686   30.5169  C.3   1 <0>        -0.0368
16   C16     -25.3981  -14.0742   27.3609  C.3   1 <0>        -0.0462
17   C17     -26.6288  -14.2988   29.6636  C.3   1 <0>        -0.0450
18   C18     -25.0658  -16.4470   29.8453  C.3   1 <0>         0.0462
19   C19     -25.9193  -13.3535   28.6361  C.3   1 <0>        -0.0158
20   C20     -32.3995  -11.8316   25.7055  C.3   1 <0>         0.1101
21   N1      -26.1294  -18.5781   30.6629  N.1   1 <0>        -0.1963
22   N2      -29.5750   -9.2339   27.3938  N.2   1 <0>        -0.3567
23   N3      -32.4418  -10.3956   25.3055  N.4   1 <0>        -0.2984
24   O1      -32.4764  -13.5687   23.9329  O.co2 1 <0>        -0.4795
25   O2      -34.4206  -12.4473   24.4756  O.co2 1 <0>        -0.2492
26   H1      -25.6314  -10.6822   29.1603  H     1 <0>         0.0621
27   H2      -27.1392   -8.8613   28.6889  H     1 <0>         0.0638
28   H3      -28.3147  -13.3774   27.2848  H     1 <0>         0.0627
29   H4      -30.4103  -12.5883   25.0915  H     1 <0>         0.0334
30   H5      -30.9882  -13.2020   26.6504  H     1 <0>         0.0334
31   H6      -32.4623   -9.3346   27.1335  H     1 <0>         0.0488
32   H7      -31.6897   -8.4884   25.7842  H     1 <0>         0.0488
33   H8      -23.5600  -14.8670   28.1771  H     1 <0>         0.0266
34   H9      -24.0289  -15.5446   26.6220  H     1 <0>         0.0266
35   H10     -26.0120  -16.6527   27.8821  H     1 <0>         0.0278
36   H11     -24.3984  -17.3370   27.9977  H     1 <0>         0.0278
37   H12     -24.8421  -14.5370   30.8495  H     1 <0>         0.0278
38   H13     -26.1988  -15.4450   31.4340  H     1 <0>         0.0278
39   H14     -24.8950  -13.3359   26.7303  H     1 <0>         0.0271
40   H15     -26.2329  -14.4652   26.7849  H     1 <0>         0.0271
41   H16     -27.3507  -14.9422   29.1570  H     1 <0>         0.0271
42   H17     -27.1964  -13.6812   30.3657  H     1 <0>         0.0271
43   H18     -24.0375  -16.5443   30.2006  H     1 <0>         0.0454
44   H19     -25.0339  -12.9446   29.1358  H     1 <0>         0.0349
45   H20     -32.9884  -11.9467   26.6182  H     1 <0>         0.0579
46   H21     -33.4146  -10.1109   25.1612  H     1 <0>         0.1231
47   H22     -31.9286  -10.3084   24.4230  H     1 <0>         0.0000
@<TRIPOS>BOND
     1    1   18 1
     2    1   21 3
     3    2    3 ar
     4    2    6 ar
     5    3    8 ar
     6    4    5 ar
     7    4    6 ar
     8    5    7 1
     9    5    8 ar
    10    6   19 1
    11    7    9 2
    12    7   11 1
    13    8   22 1
    14    9   12 1
    15    9   22 1
    16   10   20 1
    17   10   24 1
    18   10   25 2
    19   11   20 1
    20   12   23 1
    21   13   14 1
    22   13   16 1
    23   14   18 1
    24   15   17 1
    25   15   18 1
    26   16   19 1
    27   17   19 1
    28   20   23 1
    29    2   26 1
    30    3   27 1
    31    4   28 1
    32   11   29 1
    33   11   30 1
    34   12   31 1
    35   12   32 1
    36   13   33 1
    37   13   34 1
    38   14   35 1
    39   14   36 1
    40   15   37 1
    41   15   38 1
    42   16   39 1
    43   16   40 1
    44   17   41 1
    45   17   42 1
    46   18   43 1
    47   19   44 1
    48   20   45 1
    49   23   46 1
    50   23   47 1
@<TRIPOS>PROPERTY_DATA
  Total_Score	| 6.3545
  Crash		| -4.8031
  Polar		| 3.3387

@<TRIPOS>MOLECULE
ligand_uncharged47_001
   47    50     0     0     0
SMALL
USER_CHARGES

@<TRIPOS>ATOM
1    C1      -25.6614  -17.4979   30.2124  C.1   1 <0>         0.0659
2    C2      -26.5301  -10.7712   28.5467  C.ar  1 <0>        -0.0563
3    C3      -27.4051   -9.7012   28.2722  C.ar  1 <0>        -0.0375
4    C4      -28.1041  -12.3516   27.5509  C.ar  1 <0>        -0.0489
5    C5      -28.9718  -11.2753   27.2860  C.ar  1 <0>         0.0035
6    C6      -26.8607  -12.1141   28.2049  C.ar  1 <0>        -0.0436
7    C7      -30.2221  -11.2049   26.6844  C.2   1 <0>        -0.0159
8    C8      -28.6323   -9.9764   27.6532  C.ar  1 <0>         0.0470
9    C9      -30.5971   -9.8624   26.7288  C.2   1 <0>         0.0343
10   C10     -33.1696  -12.5542   24.6818  C.2   1 <0>         0.3223
11   C11     -31.0260  -12.2544   26.0307  C.3   1 <0>         0.0005
12   C12     -31.8844   -9.3781   26.2086  C.3   1 <0>         0.0374
13   C13     -24.4814  -15.1539   27.4681  C.3   1 <0>        -0.0513
14   C14     -25.0666  -16.4082   28.1644  C.3   1 <0>        -0.0374
15   C15     -25.5919  -15.0664   30.4125  C.3   1 <0>        -0.0368
16   C16     -25.4813  -13.9936   27.2652  C.3   1 <0>        -0.0462
17   C17     -26.6006  -14.1839   29.6256  C.3   1 <0>        -0.0450
18   C18     -25.0605  -16.3691   29.7224  C.3   1 <0>         0.0462
19   C19     -25.9429  -13.2503   28.5539  C.3   1 <0>        -0.0158
20   C20     -32.4794  -11.7649   25.7133  C.3   1 <0>         0.1101
21   N1      -26.1258  -18.4618   30.6349  N.1   1 <0>        -0.1963
22   N2      -29.6338   -9.1367   27.3283  N.2   1 <0>        -0.3567
23   N3      -32.4854  -10.3459   25.2613  N.4   1 <0>        -0.2984
24   O1      -34.5137  -12.4336   24.5444  O.co2 1 <0>        -0.4795
25   O2      -32.5449  -13.5238   23.9547  O.co2 1 <0>        -0.2492
26   H1      -25.6455  -10.5657   29.0294  H     1 <0>         0.0621
27   H2      -27.1600   -8.7427   28.5319  H     1 <0>         0.0638
28   H3      -28.3917  -13.2939   27.2952  H     1 <0>         0.0627
29   H4      -30.5030  -12.5199   25.1081  H     1 <0>         0.0334
30   H5      -31.0785  -13.1385   26.6680  H     1 <0>         0.0334
31   H6      -32.5533   -9.2131   27.0529  H     1 <0>         0.0488
32   H7      -31.7370   -8.4322   25.6886  H     1 <0>         0.0488
33   H8      -23.6212  -14.7862   28.0255  H     1 <0>         0.0266
34   H9      -24.1271  -15.4608   26.4801  H     1 <0>         0.0266
35   H10     -26.0799  -16.5858   27.7857  H     1 <0>         0.0278
36   H11     -24.4551  -17.2645   27.8516  H     1 <0>         0.0278
37   H12     -24.7342  -14.4411   30.6706  H     1 <0>         0.0278
38   H13     -26.0588  -15.3119   31.3707  H     1 <0>         0.0278
39   H14     -24.9933  -13.2646   26.6111  H     1 <0>         0.0271
40   H15     -26.3484  -14.3836   26.7329  H     1 <0>         0.0271
41   H16     -27.3691  -14.8209   29.1741  H     1 <0>         0.0271
42   H17     -27.1084  -13.5461   30.3598  H     1 <0>         0.0271
43   H18     -24.0212  -16.4889   30.0335  H     1 <0>         0.0454
44   H19     -25.0368  -12.8328   29.0073  H     1 <0>         0.0349
45   H20     -33.0748  -11.8315   26.6252  H     1 <0>         0.0579
46   H21     -33.4561  -10.0714   25.0713  H     1 <0>         0.1231
47   H22     -31.9564  -10.3020   24.3859  H     1 <0>         0.0000
@<TRIPOS>BOND
     1    1   18 1
     2    1   21 3
     3    2    3 ar
     4    2    6 ar
     5    3    8 ar
     6    4    5 ar
     7    4    6 ar
     8    5    7 1
     9    5    8 ar
    10    6   19 1
    11    7    9 2
    12    7   11 1
    13    8   22 1
    14    9   12 1
    15    9   22 1
    16   10   20 1
    17   10   24 1
    18   10   25 2
    19   11   20 1
    20   12   23 1
    21   13   14 1
    22   13   16 1
    23   14   18 1
    24   15   17 1
    25   15   18 1
    26   16   19 1
    27   17   19 1
    28   20   23 1
    29    2   26 1
    30    3   27 1
    31    4   28 1
    32   11   29 1
    33   11   30 1
    34   12   31 1
    35   12   32 1
    36   13   33 1
    37   13   34 1
    38   14   35 1
    39   14   36 1
    40   15   37 1
    41   15   38 1
    42   16   39 1
    43   16   40 1
    44   17   41 1
    45   17   42 1
    46   18   43 1
    47   19   44 1
    48   20   45 1
    49   23   46 1
    50   23   47 1
@<TRIPOS>PROPERTY_DATA
  Total_Score	| 5.9775
  Crash		| -5.0135
  Polar		| 3.4785

@<TRIPOS>MOLECULE
ligand_uncharged47_002
   47    50     0     0     0
SMALL
USER_CHARGES

@<TRIPOS>ATOM
1    C1      -25.5583  -17.5761   30.4448  C.1   1 <0>         0.0659
2    C2      -26.4436  -10.9839   28.5481  C.ar  1 <0>        -0.0563
3    C3      -27.2941   -9.8863   28.3140  C.ar  1 <0>        -0.0375
4    C4      -28.0394  -12.4995   27.4884  C.ar  1 <0>        -0.0489
5    C5      -28.8848  -11.3974   27.2676  C.ar  1 <0>         0.0035
6    C6      -26.8053  -12.3041   28.1593  C.ar  1 <0>        -0.0436
7    C7      -30.1507  -11.2889   26.6981  C.2   1 <0>        -0.0159
8    C8      -28.5247  -10.1147   27.6820  C.ar  1 <0>         0.0470
9    C9      -30.5027   -9.9437   26.8063  C.2   1 <0>         0.0343
10   C10     -33.0911  -12.5404   24.6195  C.2   1 <0>         0.3223
11   C11     -30.9946  -12.3235   26.0598  C.3   1 <0>         0.0005
12   C12     -31.8111   -9.4354   26.3609  C.3   1 <0>         0.0374
13   C13     -24.4608  -15.3911   27.5454  C.3   1 <0>        -0.0513
14   C14     -24.9750  -16.5919   28.3755  C.3   1 <0>        -0.0374
15   C15     -25.6266  -15.1385   30.5344  C.3   1 <0>        -0.0368
16   C16     -25.5252  -14.2918   27.2802  C.3   1 <0>        -0.0462
17   C17     -26.6221  -14.3360   29.6511  C.3   1 <0>        -0.0450
18   C18     -24.9926  -16.4384   29.9287  C.3   1 <0>         0.0462
19   C19     -25.9382  -13.4690   28.5373  C.3   1 <0>        -0.0158
20   C20     -32.4330  -11.7973   25.7167  C.3   1 <0>         0.1101
21   N1      -26.0297  -18.5337   30.8706  N.1   1 <0>        -0.1963
22   N2      -29.5131   -9.2460   27.4010  N.2   1 <0>        -0.3567
23   N3      -32.4273  -10.3471   25.3664  N.4   1 <0>        -0.2984
24   O1      -34.4416  -12.4733   24.4697  O.co2 1 <0>        -0.4795
25   O2      -32.4313  -13.4984   23.9128  O.co2 1 <0>        -0.2492
26   H1      -25.5622  -10.8108   29.0350  H     1 <0>         0.0621
27   H2      -27.0407   -8.9448   28.6321  H     1 <0>         0.0638
28   H3      -28.3484  -13.4325   27.2086  H     1 <0>         0.0627
29   H4      -30.4734  -12.6253   25.1476  H     1 <0>         0.0334
30   H5      -31.0725  -13.1891   26.7267  H     1 <0>         0.0334
31   H6      -32.4617   -9.3374   27.2319  H     1 <0>         0.0488
32   H7      -31.6880   -8.4544   25.9015  H     1 <0>         0.0488
33   H8      -23.5857  -14.9610   28.0347  H     1 <0>         0.0266
34   H9      -24.1381  -15.7684   26.5707  H     1 <0>         0.0266
35   H10     -25.9749  -16.8480   28.0153  H     1 <0>         0.0278
36   H11     -24.3211  -17.4388   28.1484  H     1 <0>         0.0278
37   H12     -24.8190  -14.4609   30.8365  H     1 <0>         0.0278
38   H13     -26.1574  -15.3742   31.4612  H     1 <0>         0.0278
39   H14     -25.1082  -13.6063   26.5328  H     1 <0>         0.0271
40   H15     -26.4100  -14.7594   26.8375  H     1 <0>         0.0271
41   H16     -27.3542  -15.0222   29.2069  H     1 <0>         0.0271
42   H17     -27.1735  -13.6678   30.3234  H     1 <0>         0.0271
43   H18     -23.9509  -16.4754   30.2716  H     1 <0>         0.0454
44   H19     -25.0059  -13.0739   28.9601  H     1 <0>         0.0349
45   H20     -33.0667  -11.9155   26.6003  H     1 <0>         0.0579
46   H21     -33.4048  -10.0618   25.2361  H     1 <0>         0.1231
47   H22     -31.9230  -10.2419   24.4844  H     1 <0>         0.0000
@<TRIPOS>BOND
     1    1   18 1
     2    1   21 3
     3    2    3 ar
     4    2    6 ar
     5    3    8 ar
     6    4    5 ar
     7    4    6 ar
     8    5    7 1
     9    5    8 ar
    10    6   19 1
    11    7    9 2
    12    7   11 1
    13    8   22 1
    14    9   12 1
    15    9   22 1
    16   10   20 1
    17   10   24 1
    18   10   25 2
    19   11   20 1
    20   12   23 1
    21   13   14 1
    22   13   16 1
    23   14   18 1
    24   15   17 1
    25   15   18 1
    26   16   19 1
    27   17   19 1
    28   20   23 1
    29    2   26 1
    30    3   27 1
    31    4   28 1
    32   11   29 1
    33   11   30 1
    34   12   31 1
    35   12   32 1
    36   13   33 1
    37   13   34 1
    38   14   35 1
    39   14   36 1
    40   15   37 1
    41   15   38 1
    42   16   39 1
    43   16   40 1
    44   17   41 1
    45   17   42 1
    46   18   43 1
    47   19   44 1
    48   20   45 1
    49   23   46 1
    50   23   47 1
@<TRIPOS>PROPERTY_DATA
  Total_Score	| 5.8623
  Crash		| -5.0270
  Polar		| 3.4330

@<TRIPOS>MOLECULE
ligand_uncharged53_000
   47    50     0     0     0
SMALL
USER_CHARGES

@<TRIPOS>ATOM
1    C1      -29.0447  -15.9850   26.7119  C.ar  1 <0>        -0.0563
2    C2      -30.1324  -15.8386   25.8238  C.ar  1 <0>        -0.0375
3    C3      -29.0995  -13.6006   27.2312  C.ar  1 <0>        -0.0489
4    C4      -30.1827  -13.4735   26.3492  C.ar  1 <0>         0.0035
5    C5      -28.5026  -14.8762   27.4161  C.ar  1 <0>        -0.0435
6    C6      -30.9365  -12.3743   25.9724  C.2   1 <0>        -0.0159
7    C7      -30.7016  -14.5668   25.6580  C.ar  1 <0>         0.0470
8    C8      -31.9362  -12.8674   25.1281  C.2   1 <0>         0.0343
9    C9      -31.8891   -8.6767   26.0249  C.2   1 <0>         0.3223
10   C10     -24.4295  -17.7502   29.6065  C.2   1 <0>         0.2125
11   C11     -30.7936  -10.9564   26.3581  C.3   1 <0>         0.0005
12   C12     -33.0338  -11.9975   24.6493  C.3   1 <0>         0.0374
13   C13     -26.0489  -15.4491   27.4596  C.3   1 <0>        -0.0303
14   C14     -27.5159  -15.9699   29.5031  C.3   1 <0>        -0.0303
15   C15     -24.8069  -15.6743   28.3518  C.3   1 <0>         0.0152
16   C16     -26.2021  -16.1688   30.3023  C.3   1 <0>         0.0152
17   C17     -27.2945  -15.0167   28.2911  C.3   1 <0>        -0.0130
18   C18     -31.7337  -10.0509   25.5078  C.3   1 <0>         0.1101
19   C19     -24.7061  -18.7407   30.6357  C.3   1 <0>         0.0124
20   N1      -31.7296  -14.1745   24.8754  N.2   1 <0>        -0.3567
21   N2      -25.1108  -16.5994   29.4360  N.am  1 <0>        -0.3017
22   N3      -33.0595  -10.7106   25.4007  N.4   1 <0>        -0.2984
23   O1      -32.5031   -7.7703   25.2346  O.co2 1 <0>        -0.4795
24   O2      -31.2528   -8.2327   27.1329  O.co2 1 <0>        -0.2492
25   O3      -23.5041  -18.0493   28.8633  O.2   1 <0>        -0.2759
26   H1      -28.6494  -16.9188   26.8335  H     1 <0>         0.0621
27   H2      -30.5077  -16.6430   25.3224  H     1 <0>         0.0638
28   H3      -28.7525  -12.7791   27.7275  H     1 <0>         0.0627
29   H4      -31.0295  -10.8656   27.4229  H     1 <0>         0.0334
30   H5      -29.7554  -10.6462   26.1975  H     1 <0>         0.0334
31   H6      -32.9165  -11.8013   23.5832  H     1 <0>         0.0488
32   H7      -33.9794  -12.5170   24.8132  H     1 <0>         0.0488
33   H8      -25.8199  -14.6686   26.7283  H     1 <0>         0.0286
34   H9      -26.2546  -16.3766   26.9262  H     1 <0>         0.0286
35   H10     -27.8699  -16.9473   29.1697  H     1 <0>         0.0286
36   H11     -28.2780  -15.5446   30.1656  H     1 <0>         0.0286
37   H12     -23.9976  -16.0136   27.6981  H     1 <0>         0.0465
38   H13     -24.4891  -14.7150   28.7717  H     1 <0>         0.0465
39   H14     -25.9234  -15.2263   30.7784  H     1 <0>         0.0465
40   H15     -26.4266  -16.8647   31.1056  H     1 <0>         0.0465
41   H16     -27.0456  -14.0393   28.7224  H     1 <0>         0.0350
42   H17     -31.3060   -9.9545   24.5066  H     1 <0>         0.0579
43   H18     -25.7271  -19.1045   30.5116  H     1 <0>         0.0323
44   H19     -24.5870  -18.2912   31.6238  H     1 <0>         0.0323
45   H20     -24.0354  -19.6045   30.5804  H     1 <0>         0.0323
46   H21     -33.7505  -10.0855   24.9836  H     1 <0>         0.1231
47   H22     -33.3739  -10.9165   26.3557  H     1 <0>         0.0000
@<TRIPOS>BOND
     1    1    2 ar
     2    1    5 ar
     3    2    7 ar
     4    3    4 ar
     5    3    5 ar
     6    4    6 1
     7    4    7 ar
     8    5   17 1
     9    6    8 2
    10    6   11 1
    11    7   20 1
    12    8   12 1
    13    8   20 1
    14    9   18 1
    15    9   23 1
    16    9   24 2
    17   10   19 1
    18   10   21 am
    19   10   25 2
    20   11   18 1
    21   12   22 1
    22   13   15 1
    23   13   17 1
    24   14   16 1
    25   14   17 1
    26   15   21 1
    27   16   21 1
    28   18   22 1
    29    1   26 1
    30    2   27 1
    31    3   28 1
    32   11   29 1
    33   11   30 1
    34   12   31 1
    35   12   32 1
    36   13   33 1
    37   13   34 1
    38   14   35 1
    39   14   36 1
    40   15   37 1
    41   15   38 1
    42   16   39 1
    43   16   40 1
    44   17   41 1
    45   18   42 1
    46   19   43 1
    47   19   44 1
    48   19   45 1
    49   22   46 1
    50   22   47 1
@<TRIPOS>PROPERTY_DATA
  Total_Score	| 7.9336
  Crash		| -3.3955
  Polar		| 4.2335

@<TRIPOS>MOLECULE
ligand_uncharged53_001
   47    50     0     0     0
SMALL
USER_CHARGES

@<TRIPOS>ATOM
1    C1      -29.0442  -16.0992   26.7290  C.ar  1 <0>        -0.0563
2    C2      -30.1231  -15.9560   25.8330  C.ar  1 <0>        -0.0375
3    C3      -29.1179  -13.7128   27.2490  C.ar  1 <0>        -0.0489
4    C4      -30.1766  -13.5812   26.3384  C.ar  1 <0>         0.0035
5    C5      -28.5220  -14.9853   27.4460  C.ar  1 <0>        -0.0435
6    C6      -30.9026  -12.4801   25.9103  C.2   1 <0>        -0.0159
7    C7      -30.6638  -14.6789   25.6290  C.ar  1 <0>         0.0470
8    C8      -31.8109  -12.9622   24.9707  C.2   1 <0>         0.0343
9    C9      -31.7591   -8.7604   25.8156  C.2   1 <0>         0.3223
10   C10     -24.4175  -17.7958   29.6210  C.2   1 <0>         0.2125
11   C11     -30.7883  -11.0617   26.3027  C.3   1 <0>         0.0005
12   C12     -32.7576  -12.0814   24.2720  C.3   1 <0>         0.0374
13   C13     -26.0327  -15.4231   27.5794  C.3   1 <0>        -0.0303
14   C14     -27.5811  -16.1930   29.4733  C.3   1 <0>        -0.0303
15   C15     -24.8394  -15.6305   28.5439  C.3   1 <0>         0.0152
16   C16     -26.3142  -16.3829   30.3475  C.3   1 <0>         0.0152
17   C17     -27.3467  -15.1278   28.3621  C.3   1 <0>        -0.0130
18   C18     -31.5353  -10.1260   25.2969  C.3   1 <0>         0.1101
19   C19     -24.6793  -18.8772   30.5519  C.3   1 <0>         0.0124
20   N1      -31.6220  -14.2821   24.7731  N.2   1 <0>        -0.3567
21   N2      -25.1482  -16.6664   29.5210  N.am  1 <0>        -0.3017
22   N3      -32.8340  -10.7256   24.8717  N.4   1 <0>        -0.2984
23   O1      -31.0593   -8.2654   26.8642  O.co2 1 <0>        -0.4795
24   O2      -32.4782   -7.8888   25.0749  O.co2 1 <0>        -0.2492
25   O3      -23.4648  -17.9980   28.8773  O.2   1 <0>        -0.2759
26   H1      -28.6256  -17.0242   26.8389  H     1 <0>         0.0621
27   H2      -30.5001  -16.7638   25.3325  H     1 <0>         0.0638
28   H3      -28.7664  -12.8824   27.7312  H     1 <0>         0.0627
29   H4      -31.2029  -10.9591   27.3085  H     1 <0>         0.0334
30   H5      -29.7307  -10.7850   26.3325  H     1 <0>         0.0334
31   H6      -32.4421  -11.9952   23.2316  H     1 <0>         0.0488
32   H7      -33.7561  -12.5217   24.3067  H     1 <0>         0.0488
33   H8      -25.8055  -14.5860   26.9122  H     1 <0>         0.0286
34   H9      -26.1438  -16.3259   26.9733  H     1 <0>         0.0286
35   H10     -27.8360  -17.1563   29.0268  H     1 <0>         0.0286
36   H11     -28.4163  -15.8845   30.1090  H     1 <0>         0.0286
37   H12     -23.9547  -15.8453   27.9398  H     1 <0>         0.0465
38   H13     -24.6355  -14.6890   29.0628  H     1 <0>         0.0465
39   H14     -26.1318  -15.4707   30.9249  H     1 <0>         0.0465
40   H15     -26.5411  -17.1638   31.0701  H     1 <0>         0.0465
41   H16     -27.1833  -14.1784   28.8852  H     1 <0>         0.0350
42   H17     -30.9096  -10.0186   24.4080  H     1 <0>         0.0579
43   H18     -25.6716  -19.2861   30.3559  H     1 <0>         0.0323
44   H19     -24.6264  -18.5032   31.5764  H     1 <0>         0.0323
45   H20     -23.9576  -19.6944   30.4584  H     1 <0>         0.0323
46   H21     -33.2783  -10.1321   24.1674  H     1 <0>         0.1231
47   H22     -33.4459  -10.7685   25.6900  H     1 <0>         0.0000
@<TRIPOS>BOND
     1    1    2 ar
     2    1    5 ar
     3    2    7 ar
     4    3    4 ar
     5    3    5 ar
     6    4    6 1
     7    4    7 ar
     8    5   17 1
     9    6    8 2
    10    6   11 1
    11    7   20 1
    12    8   12 1
    13    8   20 1
    14    9   18 1
    15    9   23 1
    16    9   24 2
    17   10   19 1
    18   10   21 am
    19   10   25 2
    20   11   18 1
    21   12   22 1
    22   13   15 1
    23   13   17 1
    24   14   16 1
    25   14   17 1
    26   15   21 1
    27   16   21 1
    28   18   22 1
    29    1   26 1
    30    2   27 1
    31    3   28 1
    32   11   29 1
    33   11   30 1
    34   12   31 1
    35   12   32 1
    36   13   33 1
    37   13   34 1
    38   14   35 1
    39   14   36 1
    40   15   37 1
    41   15   38 1
    42   16   39 1
    43   16   40 1
    44   17   41 1
    45   18   42 1
    46   19   43 1
    47   19   44 1
    48   19   45 1
    49   22   46 1
    50   22   47 1
@<TRIPOS>PROPERTY_DATA
  Total_Score	| 7.1967
  Crash		| -4.3205
  Polar		| 3.9880

@<TRIPOS>MOLECULE
ligand_uncharged53_002
   47    50     0     0     0
SMALL
USER_CHARGES

@<TRIPOS>ATOM
1    C1      -29.3321  -16.0158   26.8727  C.ar  1 <0>        -0.0563
2    C2      -30.3194  -15.8369   25.8904  C.ar  1 <0>        -0.0375
3    C3      -29.3819  -13.6262   27.3970  C.ar  1 <0>        -0.0489
4    C4      -30.3718  -13.4676   26.4103  C.ar  1 <0>         0.0035
5    C5      -28.8525  -14.9186   27.6561  C.ar  1 <0>        -0.0435
6    C6      -31.0452  -12.3532   25.9470  C.2   1 <0>        -0.0159
7    C7      -30.8278  -14.5504   25.6573  C.ar  1 <0>         0.0470
8    C8      -31.9235  -12.8253   24.9642  C.2   1 <0>         0.0343
9    C9      -31.8431   -8.6239   25.7976  C.2   1 <0>         0.3223
10   C10     -24.5040  -17.3248   29.4844  C.2   1 <0>         0.2125
11   C11     -30.9254  -10.9352   26.3281  C.3   1 <0>         0.0005
12   C12     -32.8488  -11.9267   24.2539  C.3   1 <0>         0.0374
13   C13     -26.3785  -14.8843   27.9367  C.3   1 <0>        -0.0303
14   C14     -27.7656  -16.3079   29.5679  C.3   1 <0>        -0.0303
15   C15     -25.1882  -15.0279   28.9174  C.3   1 <0>         0.0152
16   C16     -26.5194  -16.3320   30.5037  C.3   1 <0>         0.0152
17   C17     -27.7507  -15.0366   28.6619  C.3   1 <0>        -0.0130
18   C18     -31.6292   -9.9970   25.2969  C.3   1 <0>         0.1101
19   C19     -24.5410  -18.5722   30.2278  C.3   1 <0>         0.0124
20   N1      -31.7517  -14.1410   24.7678  N.2   1 <0>        -0.3567
21   N2      -25.3146  -16.2702   29.6774  N.am  1 <0>        -0.3017
22   N3      -32.9313  -10.5840   24.8755  N.4   1 <0>        -0.2984
23   O1      -32.5395   -7.7687   25.0081  O.co2 1 <0>        -0.4795
24   O2      -31.2205   -8.1295   26.9075  O.co2 1 <0>        -0.2492
25   O3      -23.7493  -17.3139   28.5233  O.2   1 <0>        -0.2759
26   H1      -28.9424  -16.9509   26.9804  H     1 <0>         0.0621
27   H2      -30.6556  -16.6350   25.3402  H     1 <0>         0.0638
28   H3      -29.0287  -12.8058   27.9033  H     1 <0>         0.0627
29   H4      -31.3700  -10.8339   27.3198  H     1 <0>         0.0334
30   H5      -29.8637  -10.6733   26.3891  H     1 <0>         0.0334
31   H6      -32.5037  -11.8221   23.2230  H     1 <0>         0.0488
32   H7      -33.8600  -12.3513   24.2543  H     1 <0>         0.0488
33   H8      -26.3173  -13.9149   27.4321  H     1 <0>         0.0286
34   H9      -26.2843  -15.6610   27.1697  H     1 <0>         0.0286
35   H10     -27.7031  -17.1907   28.9564  H     1 <0>         0.0286
36   H11     -28.6703  -16.3327   30.1669  H     1 <0>         0.0286
37   H12     -24.2591  -14.9616   28.3417  H     1 <0>         0.0465
38   H13     -25.1796  -14.1813   29.6116  H     1 <0>         0.0465
39   H14     -26.5494  -15.4815   31.1896  H     1 <0>         0.0465
40   H15     -26.5953  -17.2414   31.1090  H     1 <0>         0.0465
41   H16     -27.8309  -14.1903   29.3669  H     1 <0>         0.0350
42   H17     -30.9874   -9.8971   24.4220  H     1 <0>         0.0579
43   H18     -25.4977  -19.0711   30.0674  H     1 <0>         0.0323
44   H19     -24.4076  -18.3799   31.2944  H     1 <0>         0.0323
45   H20     -23.7509  -19.2675   29.9137  H     1 <0>         0.0323
46   H21     -33.4189   -9.9841   24.2028  H     1 <0>         0.1231
47   H22     -33.5176  -10.6591   25.7070  H     1 <0>         0.0000
@<TRIPOS>BOND
     1    1    2 ar
     2    1    5 ar
     3    2    7 ar
     4    3    4 ar
     5    3    5 ar
     6    4    6 1
     7    4    7 ar
     8    5   17 1
     9    6    8 2
    10    6   11 1
    11    7   20 1
    12    8   12 1
    13    8   20 1
    14    9   18 1
    15    9   23 1
    16    9   24 2
    17   10   19 1
    18   10   21 am
    19   10   25 2
    20   11   18 1
    21   12   22 1
    22   13   15 1
    23   13   17 1
    24   14   16 1
    25   14   17 1
    26   15   21 1
    27   16   21 1
    28   18   22 1
    29    1   26 1
    30    2   27 1
    31    3   28 1
    32   11   29 1
    33   11   30 1
    34   12   31 1
    35   12   32 1
    36   13   33 1
    37   13   34 1
    38   14   35 1
    39   14   36 1
    40   15   37 1
    41   15   38 1
    42   16   39 1
    43   16   40 1
    44   17   41 1
    45   18   42 1
    46   19   43 1
    47   19   44 1
    48   19   45 1
    49   22   46 1
    50   22   47 1
@<TRIPOS>PROPERTY_DATA
  Total_Score	| 6.4488
  Crash		| -3.9827
  Polar		| 3.7620

@<TRIPOS>MOLECULE
ligand_negative3_000
   35    37     0     0     0
SMALL
USER_CHARGES

@<TRIPOS>ATOM
1    C1      -28.0924  -15.6409   27.5926  C.ar  1 <0>        -0.0566
2    C2      -29.0932  -15.7256   26.5986  C.ar  1 <0>        -0.0375
3    C3      -28.6027  -13.2758   27.9420  C.ar  1 <0>        -0.0491
4    C4      -29.5798  -13.3736   26.9376  C.ar  1 <0>         0.0035
5    C5      -30.4142  -12.4187   26.3754  C.2   1 <0>        -0.0159
6    C6      -27.8264  -14.4202   28.2698  C.ar  1 <0>        -0.0462
7    C7      -29.8221  -14.5717   26.2653  C.ar  1 <0>         0.0470
8    C8      -31.1690  -13.0884   25.4082  C.2   1 <0>         0.0343
9    C9      -31.6310   -8.8323   25.8057  C.2   1 <0>         0.3223
10   C10     -24.5887  -13.6963   28.1224  C.2   1 <0>         0.3050
11   C11     -30.5158  -10.9700   26.6436  C.3   1 <0>         0.0005
12   C12     -32.1846  -12.3983   24.5885  C.3   1 <0>         0.0374
13   C13     -31.2571  -10.2287   25.4845  C.3   1 <0>         0.1101
14   C14     -26.7945  -14.3256   29.3438  C.3   1 <0>        -0.0176
15   C15     -25.6491  -13.2961   29.0757  C.3   1 <0>         0.0487
16   N1      -30.7830  -14.3823   25.3373  N.2   1 <0>        -0.3567
17   N2      -32.4559  -11.0119   25.0638  N.4   1 <0>        -0.2984
18   O1      -31.0654   -8.1686   26.8395  O.co2 1 <0>        -0.4795
19   O2      -24.4266  -14.9749   27.7035  O.co2 1 <0>        -0.4806
20   O3      -32.3508   -8.1125   24.9149  O.co2 1 <0>        -0.2492
21   O4      -23.6305  -12.7944   27.8085  O.co2 1 <0>        -0.2510
22   H1      -27.5562  -16.4839   27.8180  H     1 <0>         0.0621
23   H2      -29.2739  -16.6068   26.1143  H     1 <0>         0.0638
24   H3      -28.4683  -12.3894   28.4356  H     1 <0>         0.0627
25   H4      -31.0456  -10.8371   27.5904  H     1 <0>         0.0334
26   H5      -29.5096  -10.5556   26.7482  H     1 <0>         0.0334
27   H6      -31.8501  -12.3697   23.5498  H     1 <0>         0.0488
28   H7      -33.1204  -12.9572   24.6264  H     1 <0>         0.0488
29   H8      -30.5726  -10.1770   24.6342  H     1 <0>         0.0579
30   H9      -27.3067  -14.0178   30.2597  H     1 <0>         0.0318
31   H10     -26.3493  -15.3037   29.5506  H     1 <0>         0.0318
32   H11     -25.1535  -13.0996   30.0327  H     1 <0>         0.0381
33   H12     -26.0810  -12.3513   28.7296  H     1 <0>         0.0381
34   H13     -32.9358  -10.5176   24.3080  H     1 <0>         0.1231
35   H14     -33.0915  -11.0676   25.8630  H     1 <0>         0.0000
@<TRIPOS>BOND
     1    1    2 ar
     2    1    6 ar
     3    2    7 ar
     4    3    4 ar
     5    3    6 ar
     6    4    5 1
     7    4    7 ar
     8    5    8 2
     9    5   11 1
    10    6   14 1
    11    7   16 1
    12    8   12 1
    13    8   16 1
    14    9   13 1
    15    9   18 1
    16    9   20 2
    17   10   15 1
    18   10   19 1
    19   10   21 2
    20   11   13 1
    21   12   17 1
    22   13   17 1
    23   14   15 1
    24    1   22 1
    25    2   23 1
    26    3   24 1
    27   11   25 1
    28   11   26 1
    29   12   27 1
    30   12   28 1
    31   13   29 1
    32   14   30 1
    33   14   31 1
    34   15   32 1
    35   15   33 1
    36   17   34 1
    37   17   35 1
@<TRIPOS>PROPERTY_DATA
  Total_Score	| 9.5204
  Crash		| -0.9727
  Polar		| 6.7124

@<TRIPOS>MOLECULE
ligand_negative3_001
   35    37     0     0     0
SMALL
USER_CHARGES

@<TRIPOS>ATOM
1    C1      -28.1302  -15.8206   27.4930  C.ar  1 <0>        -0.0566
2    C2      -29.1394  -15.8762   26.5040  C.ar  1 <0>        -0.0375
3    C3      -28.5749  -13.4452   27.8397  C.ar  1 <0>        -0.0491
4    C4      -29.5414  -13.5049   26.8241  C.ar  1 <0>         0.0035
5    C5      -30.3602  -12.5320   26.2655  C.2   1 <0>        -0.0159
6    C6      -27.8161  -14.6025   28.1576  C.ar  1 <0>        -0.0462
7    C7      -29.8247  -14.6967   26.1587  C.ar  1 <0>         0.0470
8    C8      -31.1312  -13.1751   25.2988  C.2   1 <0>         0.0343
9    C9      -31.7043   -8.9649   25.9207  C.2   1 <0>         0.3223
10   C10     -24.5777  -13.7614   28.1240  C.2   1 <0>         0.3050
11   C11     -30.4338  -11.0863   26.5632  C.3   1 <0>         0.0005
12   C12     -32.1527  -12.4599   24.5039  C.3   1 <0>         0.0374
13   C13     -31.2691  -10.3125   25.4888  C.3   1 <0>         0.1101
14   C14     -26.7892  -14.5394   29.2402  C.3   1 <0>        -0.0176
15   C15     -25.6668  -13.4684   29.0742  C.3   1 <0>         0.0487
16   N1      -30.7781  -14.4774   25.2307  N.2   1 <0>        -0.3567
17   N2      -32.4532  -11.1108   25.0587  N.4   1 <0>        -0.2984
18   O1      -32.3467   -8.1560   25.0457  O.co2 1 <0>        -0.4795
19   O2      -23.6729  -12.7957   27.8476  O.co2 1 <0>        -0.4806
20   O3      -31.2266   -8.3963   27.0520  O.co2 1 <0>        -0.2492
21   O4      -24.3589  -14.9955   27.6180  O.co2 1 <0>        -0.2510
22   H1      -27.6339  -16.6829   27.7339  H     1 <0>         0.0621
23   H2      -29.3701  -16.7606   26.0453  H     1 <0>         0.0638
24   H3      -28.4375  -12.5655   28.3409  H     1 <0>         0.0627
25   H4      -30.8679  -10.9693   27.5588  H     1 <0>         0.0334
26   H5      -29.4191  -10.6795   26.5762  H     1 <0>         0.0334
27   H6      -31.8244  -12.3696   23.4660  H     1 <0>         0.0488
28   H7      -33.0784  -13.0354   24.5135  H     1 <0>         0.0488
29   H8      -30.6286  -10.1631   24.6158  H     1 <0>         0.0579
30   H9      -27.3249  -14.3002   30.1617  H     1 <0>         0.0318
31   H10     -26.3250  -15.5170   29.4006  H     1 <0>         0.0318
32   H11     -25.2034  -13.3194   30.0519  H     1 <0>         0.0381
33   H12     -26.1027  -12.5099   28.7839  H     1 <0>         0.0381
34   H13     -32.9726  -10.5900   24.3480  H     1 <0>         0.1231
35   H14     -33.0591  -11.2376   25.8724  H     1 <0>         0.0000
@<TRIPOS>BOND
     1    1    2 ar
     2    1    6 ar
     3    2    7 ar
     4    3    4 ar
     5    3    6 ar
     6    4    5 1
     7    4    7 ar
     8    5    8 2
     9    5   11 1
    10    6   14 1
    11    7   16 1
    12    8   12 1
    13    8   16 1
    14    9   13 1
    15    9   18 1
    16    9   20 2
    17   10   15 1
    18   10   19 1
    19   10   21 2
    20   11   13 1
    21   12   17 1
    22   13   17 1
    23   14   15 1
    24    1   22 1
    25    2   23 1
    26    3   24 1
    27   11   25 1
    28   11   26 1
    29   12   27 1
    30   12   28 1
    31   13   29 1
    32   14   30 1
    33   14   31 1
    34   15   32 1
    35   15   33 1
    36   17   34 1
    37   17   35 1
@<TRIPOS>PROPERTY_DATA
  Total_Score	| 9.3721
  Crash		| -1.0889
  Polar		| 6.5849

@<TRIPOS>MOLECULE
ligand_negative3_002
   35    37     0     0     0
SMALL
USER_CHARGES

@<TRIPOS>ATOM
1    C1      -28.0200  -15.6746   27.5831  C.ar  1 <0>        -0.0566
2    C2      -29.0073  -15.7508   26.5764  C.ar  1 <0>        -0.0375
3    C3      -28.5028  -13.3007   27.9066  C.ar  1 <0>        -0.0491
4    C4      -29.4749  -13.3889   26.8974  C.ar  1 <0>         0.0035
5    C5      -30.3150  -12.4382   26.3324  C.2   1 <0>        -0.0159
6    C6      -27.7492  -14.4534   28.2591  C.ar  1 <0>        -0.0462
7    C7      -29.7271  -14.5932   26.2355  C.ar  1 <0>         0.0470
8    C8      -31.0788  -13.1157   25.3830  C.2   1 <0>         0.0343
9    C9      -31.6603   -8.8881   25.8373  C.2   1 <0>         0.3223
10   C10     -24.5699  -13.6940   28.1276  C.2   1 <0>         0.3050
11   C11     -30.4432  -10.9931   26.6061  C.3   1 <0>         0.0005
12   C12     -32.1257  -12.4491   24.5834  C.3   1 <0>         0.0374
13   C13     -31.2451  -10.2630   25.4788  C.3   1 <0>         0.1101
14   C14     -26.7406  -14.3848   29.3508  C.3   1 <0>        -0.0176
15   C15     -25.5998  -13.3443   29.1305  C.3   1 <0>         0.0487
16   N1      -30.7015  -14.4127   25.3183  N.2   1 <0>        -0.3567
17   N2      -32.4301  -11.0764   25.0789  N.4   1 <0>        -0.2984
18   O1      -31.1009   -8.2319   26.8821  O.co2 1 <0>        -0.4795
19   O2      -23.6547  -12.7560   27.7756  O.co2 1 <0>        -0.4806
20   O3      -32.3709   -8.1463   24.9554  O.co2 1 <0>        -0.2492
21   O4      -24.3727  -14.9678   27.7153  O.co2 1 <0>        -0.2510
22   H1      -27.4982  -16.5237   27.8153  H     1 <0>         0.0621
23   H2      -29.1992  -16.6352   26.0944  H     1 <0>         0.0638
24   H3      -28.3520  -12.4085   28.3869  H     1 <0>         0.0627
25   H4      -30.9358  -10.8731   27.5718  H     1 <0>         0.0334
26   H5      -29.4415  -10.5559   26.6697  H     1 <0>         0.0334
27   H6      -31.8061  -12.3967   23.5417  H     1 <0>         0.0488
28   H7      -33.0453  -13.0300   24.6261  H     1 <0>         0.0488
29   H8      -30.5880  -10.1692   24.6064  H     1 <0>         0.0579
30   H9      -27.2703  -14.1220   30.2711  H     1 <0>         0.0318
31   H10     -26.2807  -15.3640   29.5247  H     1 <0>         0.0318
32   H11     -25.0800  -13.1924   30.0838  H     1 <0>         0.0381
33   H12     -26.0357  -12.3802   28.8516  H     1 <0>         0.0381
34   H13     -32.9438  -10.5894   24.3413  H     1 <0>         0.1231
35   H14     -33.0416  -11.1600   25.8940  H     1 <0>         0.0000
@<TRIPOS>BOND
     1    1    2 ar
     2    1    6 ar
     3    2    7 ar
     4    3    4 ar
     5    3    6 ar
     6    4    5 1
     7    4    7 ar
     8    5    8 2
     9    5   11 1
    10    6   14 1
    11    7   16 1
    12    8   12 1
    13    8   16 1
    14    9   13 1
    15    9   18 1
    16    9   20 2
    17   10   15 1
    18   10   19 1
    19   10   21 2
    20   11   13 1
    21   12   17 1
    22   13   17 1
    23   14   15 1
    24    1   22 1
    25    2   23 1
    26    3   24 1
    27   11   25 1
    28   11   26 1
    29   12   27 1
    30   12   28 1
    31   13   29 1
    32   14   30 1
    33   14   31 1
    34   15   32 1
    35   15   33 1
    36   17   34 1
    37   17   35 1
@<TRIPOS>PROPERTY_DATA
  Total_Score	| 9.3161
  Crash		| -1.0889
  Polar		| 6.6325

@<TRIPOS>MOLECULE
ligand_uncharged4_000
   27    29     0     0     0
SMALL
USER_CHARGES

@<TRIPOS>ATOM
1    C1      -29.2698  -16.0849   27.0898  C.ar  1 <0>        -0.0182
2    C2      -30.1882  -15.9055   26.0340  C.ar  1 <0>        -0.0343
3    C3      -29.3647  -13.6943   27.6223  C.ar  1 <0>        -0.0108
4    C4      -30.2955  -13.5330   26.5810  C.ar  1 <0>         0.0066
5    C5      -28.8574  -14.9857   27.8766  C.ar  1 <0>         0.1176
6    C6      -30.9854  -12.4625   26.1110  C.2   1 <0>        -0.0157
7    C7      -30.6860  -14.6130   25.7905  C.ar  1 <0>         0.0472
8    C8      -31.7013  -12.9155   25.0630  C.cat 1 <0>         0.0343
9    C9      -31.8336   -8.7596   25.9610  C.2   1 <0>         0.3223
10   C10     -30.9314  -11.0714   26.5349  C.3   1 <0>         0.0005
11   C11     -32.5398  -12.0589   24.2515  C.3   1 <0>         0.0374
12   C12     -32.0901  -10.2177   25.9223  C.3   1 <0>         0.1101
13   N1      -31.5182  -14.1826   24.8774  N.2   1 <0>        -0.3567
14   N2      -32.2985  -10.6157   24.5087  N.3   1 <0>        -0.2984
15   O1      -32.5088   -7.9251   25.1361  O.co2 1 <0>        -0.4795
16   O2      -31.1151   -8.2003   26.9610  O.co2 1 <0>        -0.2492
17   O3      -27.9982  -15.1711   28.9042  O.3   1 <0>        -0.5067
18   H1      -28.9059  -17.0185   27.2874  H     1 <0>         0.0655
19   H2      -30.4981  -16.7006   25.4707  H     1 <0>         0.0639
20   H3      -29.0725  -12.8969   28.1897  H     1 <0>         0.0661
21   H4      -30.9849  -11.0181   27.6247  H     1 <0>         0.0334
22   H5      -29.9631  -10.6778   26.2192  H     1 <0>         0.0334
23   H6      -32.3133  -12.2438   23.2009  H     1 <0>         0.0488
24   H7      -33.5901  -12.3010   24.4337  H     1 <0>         0.0488
25   H8      -33.0147  -10.4139   26.4734  H     1 <0>         0.0579
26   H9      -31.4635  -10.3416   23.9925  H     1 <0>         0.1231
27   H10     -28.5624  -15.5467   29.6128  H     1 <0>         0.2921
@<TRIPOS>BOND
     1    1    2 ar
     2    1    5 ar
     3    2    7 ar
     4    3    4 ar
     5    3    5 ar
     6    4    6 2
     7    4    7 ar
     8    5   17 1
     9    6    8 1
    10    6   10 1
    11    7   13 2
    12    8   11 1
    13    8   13 1
    14    9   12 1
    15    9   15 1
    16    9   16 2
    17   10   12 1
    18   11   14 1
    19   12   14 1
    20    1   18 1
    21    2   19 1
    22    3   20 1
    23   10   21 1
    24   10   22 1
    25   11   23 1
    26   11   24 1
    27   12   25 1
    28   14   26 1
    29   17   27 1
@<TRIPOS>PROPERTY_DATA
  Total_Score	| 7.1327
  Crash		| -1.5842
  Polar		| 4.7321

@<TRIPOS>MOLECULE
ligand_uncharged4_001
   27    29     0     0     0
SMALL
USER_CHARGES

@<TRIPOS>ATOM
1    C1      -29.1984  -16.0096   27.0697  C.ar  1 <0>        -0.0182
2    C2      -30.1472  -15.8337   26.0412  C.ar  1 <0>        -0.0343
3    C3      -29.3285  -13.6271   27.6331  C.ar  1 <0>        -0.0108
4    C4      -30.2681  -13.4675   26.5979  C.ar  1 <0>         0.0066
5    C5      -28.7931  -14.9112   27.8605  C.ar  1 <0>         0.1176
6    C6      -30.9732  -12.4054   26.1322  C.2   1 <0>        -0.0157
7    C7      -30.6563  -14.5441   25.8030  C.ar  1 <0>         0.0472
8    C8      -31.6877  -12.8541   25.0833  C.cat 1 <0>         0.0343
9    C9      -31.8697   -8.7131   26.0273  C.2   1 <0>         0.3223
10   C10     -30.9357  -11.0176   26.5621  C.3   1 <0>         0.0005
11   C11     -32.5488  -12.0040   24.2884  C.3   1 <0>         0.0374
12   C12     -32.1097  -10.1737   25.9631  C.3   1 <0>         0.1101
13   N1      -31.4905  -14.1162   24.8923  N.2   1 <0>        -0.3567
14   N2      -32.3201  -10.5603   24.5472  N.3   1 <0>        -0.2984
15   O1      -31.1333   -8.1692   27.0225  O.co2 1 <0>        -0.4795
16   O2      -32.4728   -7.8686   25.1576  O.co2 1 <0>        -0.2492
17   O3      -27.9153  -15.0872   28.8708  O.3   1 <0>        -0.5067
18   H1      -28.8121  -16.9394   27.2484  H     1 <0>         0.0655
19   H2      -30.4707  -16.6314   25.4923  H     1 <0>         0.0639
20   H3      -29.0471  -12.8323   28.2112  H     1 <0>         0.0661
21   H4      -30.9843  -10.9710   27.6521  H     1 <0>         0.0334
22   H5      -29.9736  -10.6065   26.2464  H     1 <0>         0.0334
23   H6      -32.3315  -12.1754   23.2343  H     1 <0>         0.0488
24   H7      -33.5946  -12.2558   24.4788  H     1 <0>         0.0488
25   H8      -33.0289  -10.3889   26.5147  H     1 <0>         0.0579
26   H9      -31.4876  -10.2781   24.0308  H     1 <0>         0.1231
27   H10     -28.4649  -15.4880   29.5743  H     1 <0>         0.2921
@<TRIPOS>BOND
     1    1    2 ar
     2    1    5 ar
     3    2    7 ar
     4    3    4 ar
     5    3    5 ar
     6    4    6 2
     7    4    7 ar
     8    5   17 1
     9    6    8 1
    10    6   10 1
    11    7   13 2
    12    8   11 1
    13    8   13 1
    14    9   12 1
    15    9   15 1
    16    9   16 2
    17   10   12 1
    18   11   14 1
    19   12   14 1
    20    1   18 1
    21    2   19 1
    22    3   20 1
    23   10   21 1
    24   10   22 1
    25   11   23 1
    26   11   24 1
    27   12   25 1
    28   14   26 1
    29   17   27 1
@<TRIPOS>PROPERTY_DATA
  Total_Score	| 7.0808
  Crash		| -1.3793
  Polar		| 4.5432

@<TRIPOS>MOLECULE
ligand_uncharged4_002
   27    29     0     0     0
SMALL
USER_CHARGES

@<TRIPOS>ATOM
1    C1      -28.5063  -15.7200   27.5908  C.ar  1 <0>        -0.0182
2    C2      -29.4314  -15.7238   26.5234  C.ar  1 <0>        -0.0343
3    C3      -28.8993  -13.3325   27.9617  C.ar  1 <0>        -0.0108
4    C4      -29.8344  -13.3574   26.9159  C.ar  1 <0>         0.0066
5    C5      -28.2416  -14.5302   28.3091  C.ar  1 <0>         0.1176
6    C6      -30.6379  -12.4054   26.3695  C.2   1 <0>        -0.0157
7    C7      -30.0976  -14.5277   26.2037  C.ar  1 <0>         0.0472
8    C8      -31.3023  -13.0068   25.3658  C.cat 1 <0>         0.0343
9    C9      -31.7963   -8.8209   25.9493  C.2   1 <0>         0.3223
10   C10     -30.7232  -10.9913   26.6939  C.3   1 <0>         0.0005
11   C11     -32.2458  -12.3043   24.5148  C.3   1 <0>         0.0374
12   C12     -31.9499  -10.2920   26.0256  C.3   1 <0>         0.1101
13   N1      -30.9694  -14.2551   25.2674  N.2   1 <0>        -0.3567
14   N2      -32.1426  -10.8253   24.6550  N.3   1 <0>        -0.2984
15   O1      -32.5487   -8.0938   25.0905  O.co2 1 <0>        -0.4795
16   O2      -31.1574   -8.1412   26.9297  O.co2 1 <0>        -0.2492
17   O3      -27.3470  -14.5202   29.3275  O.3   1 <0>        -0.5067
18   H1      -28.0216  -16.5847   27.8436  H     1 <0>         0.0655
19   H2      -29.6206  -16.5823   26.0026  H     1 <0>         0.0639
20   H3      -28.7125  -12.4668   28.4747  H     1 <0>         0.0661
21   H4      -30.7905  -10.8661   27.7766  H     1 <0>         0.0334
22   H5      -29.7944  -10.5271   26.3560  H     1 <0>         0.0334
23   H6      -32.0404  -12.5483   23.4686  H     1 <0>         0.0488
24   H7      -33.2618  -12.6294   24.7526  H     1 <0>         0.0488
25   H8      -32.8517  -10.5076   26.6086  H     1 <0>         0.0579
26   H9      -31.3504  -10.5152   24.0945  H     1 <0>         0.1231
27   H10     -27.7282  -15.1214   30.0004  H     1 <0>         0.2921
@<TRIPOS>BOND
     1    1    2 ar
     2    1    5 ar
     3    2    7 ar
     4    3    4 ar
     5    3    5 ar
     6    4    6 2
     7    4    7 ar
     8    5   17 1
     9    6    8 1
    10    6   10 1
    11    7   13 2
    12    8   11 1
    13    8   13 1
    14    9   12 1
    15    9   15 1
    16    9   16 2
    17   10   12 1
    18   11   14 1
    19   12   14 1
    20    1   18 1
    21    2   19 1
    22    3   20 1
    23   10   21 1
    24   10   22 1
    25   11   23 1
    26   11   24 1
    27   12   25 1
    28   14   26 1
    29   17   27 1
@<TRIPOS>PROPERTY_DATA
  Total_Score	| 7.0518
  Crash		| -0.7105
  Polar		| 4.6409

@<TRIPOS>MOLECULE
ligand_negative11_000
   50    53     0     0     0
SMALL
USER_CHARGES

@<TRIPOS>ATOM
1    C1      -26.0033  -10.7294   28.8796  C.ar  1 <0>        -0.0360
2    C2      -25.5091   -9.4442   29.1802  C.ar  1 <0>        -0.0389
3    C3      -27.2731   -8.4254   27.8349  C.ar  1 <0>        -0.0314
4    C4      -27.7860   -9.7065   27.5789  C.ar  1 <0>         0.0049
5    C5      -28.9094  -10.1588   26.8911  C.2   1 <0>        -0.0158
6    C6      -27.1524  -10.8473   28.0783  C.ar  1 <0>         0.0471
7    C7      -26.1256   -8.2731   28.6617  C.ar  1 <0>         0.0280
8    C8      -28.8839  -11.5529   26.9725  C.2   1 <0>         0.0343
9    C9      -32.1811   -9.6582   24.9813  C.2   1 <0>         0.3223
10   C10     -24.2368   -4.1641   33.1190  C.2   1 <0>         0.3189
11   C11     -29.9747   -9.4056   26.1902  C.3   1 <0>         0.0005
12   C12     -29.9132  -12.4056   26.3557  C.3   1 <0>         0.0374
13   C13     -24.6686   -4.8781   28.4962  C.3   1 <0>        -0.0217
14   C14     -26.9437   -5.0862   29.6391  C.3   1 <0>        -0.0217
15   C15     -24.0425   -4.5115   29.8690  C.3   1 <0>         0.0011
16   C16     -26.2593   -4.7070   30.9810  C.3   1 <0>         0.0011
17   C17     -31.2342  -10.2967   25.9240  C.3   1 <0>         0.1101
18   C18     -25.9545   -5.7442   28.6367  C.3   1 <0>         0.0230
19   C19     -24.4899   -3.2394   31.9959  C.3   1 <0>         0.0967
20   N1      -27.8223  -11.9488   27.7064  N.2   1 <0>        -0.3567
21   N2      -25.6019   -7.0791   29.0470  N.pl3 1 <0>        -0.3409
22   N3      -30.8020  -11.6369   25.4399  N.4   1 <0>        -0.2984
23   N4      -25.0547   -3.8451   30.7437  N.4   1 <0>        -0.2924
24   O1      -32.3397   -8.3122   24.9626  O.co2 1 <0>        -0.4795
25   O2      -23.5856   -5.3313   32.9264  O.co2 1 <0>        -0.4797
26   O3      -33.0122  -10.3912   24.2053  O.co2 1 <0>        -0.2492
27   O4      -24.7191   -3.8822   34.3556  O.co2 1 <0>        -0.2496
28   H1      -25.5475  -11.5654   29.2570  H     1 <0>         0.0639
29   H2      -24.6897   -9.3628   29.7884  H     1 <0>         0.0637
30   H3      -27.7497   -7.6240   27.4357  H     1 <0>         0.0643
31   H4      -30.2674   -8.5439   26.7942  H     1 <0>         0.0334
32   H5      -29.5587   -9.0420   25.2450  H     1 <0>         0.0334
33   H6      -29.4257  -13.1902   25.7756  H     1 <0>         0.0488
34   H7      -30.5148  -12.8737   27.1391  H     1 <0>         0.0488
35   H8      -24.9272   -3.9465   27.9825  H     1 <0>         0.0295
36   H9      -23.9300   -5.4010   27.8814  H     1 <0>         0.0295
37   H10     -27.7697   -5.7684   29.8568  H     1 <0>         0.0295
38   H11     -27.3707   -4.1790   29.1910  H     1 <0>         0.0295
39   H12     -23.6368   -5.4096   30.3431  H     1 <0>         0.0427
40   H13     -23.2070   -3.8290   29.6784  H     1 <0>         0.0427
41   H14     -26.9882   -4.1706   31.5967  H     1 <0>         0.0427
42   H15     -25.9750   -5.6279   31.4992  H     1 <0>         0.0427
43   H16     -31.7686  -10.4299   26.8682  H     1 <0>         0.0579
44   H17     -26.4256   -5.7616   27.6542  H     1 <0>         0.0498
45   H18     -23.5634   -2.7048   31.7745  H     1 <0>         0.0541
46   H19     -25.2002   -2.4788   32.3278  H     1 <0>         0.0541
47   H20     -24.9060   -7.1285   29.7228  H     1 <0>         0.1463
48   H21     -30.2953  -11.4899   24.5602  H     1 <0>         0.1231
49   H22     -31.6281  -12.2078   25.2395  H     1 <0>         0.0000
50   H23     -25.3872   -3.0469   30.1978  H     1 <0>         0.0000
@<TRIPOS>BOND
     1    1    2 ar
     2    1    6 ar
     3    2    7 ar
     4    3    4 ar
     5    3    7 ar
     6    4    5 1
     7    4    6 ar
     8    5    8 2
     9    5   11 1
    10    6   20 1
    11    7   21 1
    12    8   12 1
    13    8   20 1
    14    9   17 1
    15    9   24 1
    16    9   26 2
    17   10   19 1
    18   10   25 1
    19   10   27 2
    20   11   17 1
    21   12   22 1
    22   13   15 1
    23   13   18 1
    24   14   16 1
    25   14   18 1
    26   15   23 1
    27   16   23 1
    28   17   22 1
    29   18   21 1
    30   19   23 1
    31    1   28 1
    32    2   29 1
    33    3   30 1
    34   11   31 1
    35   11   32 1
    36   12   33 1
    37   12   34 1
    38   13   35 1
    39   13   36 1
    40   14   37 1
    41   14   38 1
    42   15   39 1
    43   15   40 1
    44   16   41 1
    45   16   42 1
    46   17   43 1
    47   18   44 1
    48   19   45 1
    49   19   46 1
    50   21   47 1
    51   22   48 1
    52   22   49 1
    53   23   50 1
@<TRIPOS>PROPERTY_DATA
  Total_Score	| 9.2840
  Crash		| -3.8058
  Polar		| 5.9258

@<TRIPOS>MOLECULE
ligand_negative11_001
   50    53     0     0     0
SMALL
USER_CHARGES

@<TRIPOS>ATOM
1    C1      -30.3858  -15.9168   25.8418  C.ar  1 <0>        -0.0360
2    C2      -29.3974  -16.1174   26.8260  C.ar  1 <0>        -0.0389
3    C3      -29.1833  -13.7059   27.1560  C.ar  1 <0>        -0.0314
4    C4      -30.2137  -13.5229   26.2188  C.ar  1 <0>         0.0049
5    C5      -30.8805  -12.3905   25.7686  C.2   1 <0>        -0.0158
6    C6      -30.7791  -14.6029   25.5405  C.ar  1 <0>         0.0471
7    C7      -28.7435  -15.0200   27.4455  C.ar  1 <0>         0.0280
8    C8      -31.7883  -12.8355   24.8069  C.2   1 <0>         0.0343
9    C9      -31.8980   -8.7544   26.0642  C.2   1 <0>         0.3223
10   C10     -24.2222  -18.9325   30.3157  C.2   1 <0>         0.3189
11   C11     -30.7480  -10.9770   26.1589  C.3   1 <0>         0.0005
12   C12     -32.7479  -11.9358   24.1450  C.3   1 <0>         0.0374
13   C13     -25.3107  -15.3087   27.9381  C.3   1 <0>        -0.0217
14   C14     -26.2956  -14.3065   30.0287  C.3   1 <0>        -0.0217
15   C15     -25.0425  -16.6344   28.7075  C.3   1 <0>         0.0011
16   C16     -25.9946  -15.6270   30.7830  C.3   1 <0>         0.0011
17   C17     -32.0789  -10.2086   25.8961  C.3   1 <0>         0.1101
18   C18     -26.5306  -14.5448   28.5170  C.3   1 <0>         0.0230
19   C19     -24.5751  -17.6717   30.9969  C.3   1 <0>         0.0967
20   N1      -31.7062  -14.1705   24.6662  N.2   1 <0>        -0.3567
21   N2      -27.7061  -15.3273   28.2587  N.pl3 1 <0>        -0.3409
22   N3      -32.6081  -10.5075   24.5328  N.4   1 <0>        -0.2984
23   N4      -24.8824  -16.4320   30.1841  N.4   1 <0>        -0.2924
24   O1      -32.4144   -7.8740   25.1764  O.co2 1 <0>        -0.4795
25   O2      -23.1466  -19.0296   29.5002  O.co2 1 <0>        -0.4797
26   O3      -31.2415   -8.2709   27.1429  O.co2 1 <0>        -0.2492
27   O4      -24.9129  -20.0712   30.5690  O.co2 1 <0>        -0.2496
28   H1      -30.8135  -16.7111   25.3629  H     1 <0>         0.0639
29   H2      -29.1034  -17.0743   27.0276  H     1 <0>         0.0637
30   H3      -28.7831  -12.8956   27.6290  H     1 <0>         0.0643
31   H4      -30.4955  -10.9170   27.2198  H     1 <0>         0.0334
32   H5      -29.9296  -10.5344   25.5825  H     1 <0>         0.0334
33   H6      -32.5879  -12.0095   23.0689  H     1 <0>         0.0488
34   H7      -33.7640  -12.2674   24.3723  H     1 <0>         0.0488
35   H8      -24.4186  -14.6802   28.0069  H     1 <0>         0.0295
36   H9      -25.4758  -15.5299   26.8802  H     1 <0>         0.0295
37   H10     -27.1737  -13.8204   30.4608  H     1 <0>         0.0295
38   H11     -25.4457  -13.6267   30.1500  H     1 <0>         0.0295
39   H12     -25.8558  -17.3390   28.5180  H     1 <0>         0.0427
40   H13     -24.1283  -17.0612   28.2886  H     1 <0>         0.0427
41   H14     -25.7289  -15.3608   31.8081  H     1 <0>         0.0427
42   H15     -26.9059  -16.2265   30.8191  H     1 <0>         0.0427
43   H16     -32.8208  -10.5451   26.6258  H     1 <0>         0.0579
44   H17     -26.5813  -13.5690   28.0265  H     1 <0>         0.0498
45   H18     -23.7348  -17.4312   31.6475  H     1 <0>         0.0541
46   H19     -25.4071  -17.9090   31.6620  H     1 <0>         0.0541
47   H20     -27.6386  -16.2584   28.5168  H     1 <0>         0.1463
48   H21     -31.9845  -10.0588   23.8572  H     1 <0>         0.1231
49   H22     -33.5281  -10.0698   24.4518  H     1 <0>         0.0000
50   H23     -24.0593  -15.8415   30.2662  H     1 <0>         0.0000
@<TRIPOS>BOND
     1    1    2 ar
     2    1    6 ar
     3    2    7 ar
     4    3    4 ar
     5    3    7 ar
     6    4    5 1
     7    4    6 ar
     8    5    8 2
     9    5   11 1
    10    6   20 1
    11    7   21 1
    12    8   12 1
    13    8   20 1
    14    9   17 1
    15    9   24 1
    16    9   26 2
    17   10   19 1
    18   10   25 1
    19   10   27 2
    20   11   17 1
    21   12   22 1
    22   13   15 1
    23   13   18 1
    24   14   16 1
    25   14   18 1
    26   15   23 1
    27   16   23 1
    28   17   22 1
    29   18   21 1
    30   19   23 1
    31    1   28 1
    32    2   29 1
    33    3   30 1
    34   11   31 1
    35   11   32 1
    36   12   33 1
    37   12   34 1
    38   13   35 1
    39   13   36 1
    40   14   37 1
    41   14   38 1
    42   15   39 1
    43   15   40 1
    44   16   41 1
    45   16   42 1
    46   17   43 1
    47   18   44 1
    48   19   45 1
    49   19   46 1
    50   21   47 1
    51   22   48 1
    52   22   49 1
    53   23   50 1
@<TRIPOS>PROPERTY_DATA
  Total_Score	| 8.7003
  Crash		| -5.0578
  Polar		| 5.7919

@<TRIPOS>MOLECULE
ligand_negative11_002
   50    53     0     0     0
SMALL
USER_CHARGES

@<TRIPOS>ATOM
1    C1      -30.5551  -15.7831   25.7781  C.ar  1 <0>        -0.0360
2    C2      -29.2591  -15.9595   26.3057  C.ar  1 <0>        -0.0389
3    C3      -29.0381  -13.5531   26.6617  C.ar  1 <0>        -0.0314
4    C4      -30.3306  -13.3881   26.1286  C.ar  1 <0>         0.0049
5    C5      -31.1218  -12.2661   25.9235  C.2   1 <0>        -0.0158
6    C6      -31.0803  -14.4846   25.7030  C.ar  1 <0>         0.0471
7    C7      -28.4881  -14.8588   26.7607  C.ar  1 <0>         0.0280
8    C8      -32.3193  -12.7297   25.3745  C.2   1 <0>         0.0343
9    C9      -31.8176   -8.5409   25.9670  C.2   1 <0>         0.3223
10   C10     -24.5632  -18.6685   30.0181  C.2   1 <0>         0.3189
11   C11     -30.8300  -10.8405   26.1725  C.3   1 <0>         0.0005
12   C12     -33.4370  -11.8312   25.0292  C.3   1 <0>         0.0374
13   C13     -24.9031  -14.8730   27.8734  C.3   1 <0>        -0.0217
14   C14     -26.7808  -14.4094   29.5431  C.3   1 <0>        -0.0217
15   C15     -24.6751  -16.2437   28.5620  C.3   1 <0>         0.0011
16   C16     -26.5096  -15.7941   30.1863  C.3   1 <0>         0.0011
17   C17     -32.1299   -9.9759   26.1137  C.3   1 <0>         0.1101
18   C18     -26.3605  -14.3609   28.0475  C.3   1 <0>         0.0230
19   C19     -24.6683  -17.4091   30.7825  C.3   1 <0>         0.0967
20   N1      -32.2820  -14.0722   25.2570  N.2   1 <0>        -0.3567
21   N2      -27.2637  -15.1587   27.2656  N.pl3 1 <0>        -0.3409
22   N3      -33.0194  -10.4043   24.9998  N.4   1 <0>        -0.2984
23   N4      -25.0782  -16.1964   30.0038  N.4   1 <0>        -0.2924
24   O1      -32.4373   -7.7847   25.0324  O.co2 1 <0>        -0.4795
25   O2      -23.6577  -18.7925   29.0232  O.co2 1 <0>        -0.4797
26   O3      -30.8904   -7.9521   26.7620  O.co2 1 <0>        -0.2492
27   O4      -25.2956  -19.7554   30.3590  O.co2 1 <0>        -0.2496
28   H1      -31.1019  -16.5844   25.4591  H     1 <0>         0.0639
29   H2      -28.8814  -16.9087   26.3589  H     1 <0>         0.0637
30   H3      -28.5246  -12.7261   26.9642  H     1 <0>         0.0643
31   H4      -30.3662  -10.7306   27.1559  H     1 <0>         0.0334
32   H5      -30.1100  -10.5143   25.4163  H     1 <0>         0.0334
33   H6      -33.8233  -12.0961   24.0445  H     1 <0>         0.0488
34   H7      -34.2352  -11.9650   25.7622  H     1 <0>         0.0488
35   H8      -24.2180  -14.1454   28.3131  H     1 <0>         0.0295
36   H9      -24.6592  -14.9530   26.8110  H     1 <0>         0.0295
37   H10     -27.8426  -14.1628   29.6394  H     1 <0>         0.0295
38   H11     -26.2166  -13.6529   30.0939  H     1 <0>         0.0295
39   H12     -25.2373  -17.0167   28.0306  H     1 <0>         0.0427
40   H13     -23.6117  -16.4889   28.4786  H     1 <0>         0.0427
41   H14     -26.7402  -15.7245   31.2532  H     1 <0>         0.0427
42   H15     -27.1822  -16.5360   29.7475  H     1 <0>         0.0427
43   H16     -32.6781  -10.1148   27.0511  H     1 <0>         0.0579
44   H17     -26.3830  -13.3141   27.7407  H     1 <0>         0.0498
45   H18     -23.6964  -17.1995   31.2402  H     1 <0>         0.0541
46   H19     -25.3658  -17.5682   31.6094  H     1 <0>         0.0541
47   H20     -26.9562  -16.0614   27.0853  H     1 <0>         0.1463
48   H21     -32.5248  -10.2394   24.1207  H     1 <0>         0.1231
49   H22     -33.8617   -9.8250   25.0057  H     1 <0>         0.0000
50   H23     -24.5345  -15.4351   30.4143  H     1 <0>         0.0000
@<TRIPOS>BOND
     1    1    2 ar
     2    1    6 ar
     3    2    7 ar
     4    3    4 ar
     5    3    7 ar
     6    4    5 1
     7    4    6 ar
     8    5    8 2
     9    5   11 1
    10    6   20 1
    11    7   21 1
    12    8   12 1
    13    8   20 1
    14    9   17 1
    15    9   24 1
    16    9   26 2
    17   10   19 1
    18   10   25 1
    19   10   27 2
    20   11   17 1
    21   12   22 1
    22   13   15 1
    23   13   18 1
    24   14   16 1
    25   14   18 1
    26   15   23 1
    27   16   23 1
    28   17   22 1
    29   18   21 1
    30   19   23 1
    31    1   28 1
    32    2   29 1
    33    3   30 1
    34   11   31 1
    35   11   32 1
    36   12   33 1
    37   12   34 1
    38   13   35 1
    39   13   36 1
    40   14   37 1
    41   14   38 1
    42   15   39 1
    43   15   40 1
    44   16   41 1
    45   16   42 1
    46   17   43 1
    47   18   44 1
    48   19   45 1
    49   19   46 1
    50   21   47 1
    51   22   48 1
    52   22   49 1
    53   23   50 1
@<TRIPOS>PROPERTY_DATA
  Total_Score	| 8.5684
  Crash		| -5.5558
  Polar		| 6.2077

@<TRIPOS>MOLECULE
ligand_uncharged8_000
   30    32     0     0     0
SMALL
USER_CHARGES

@<TRIPOS>ATOM
1    C1      -24.6037  -13.0680   28.5073  C.1   1 <0>         0.1709
2    C2      -28.4768  -14.8982   27.5273  C.ar  1 <0>        -0.0360
3    C3      -27.2712  -14.5759   28.1848  C.ar  1 <0>        -0.0380
4    C4      -27.8257  -12.1949   28.1079  C.ar  1 <0>        -0.0305
5    C5      -29.0189  -12.5287   27.4452  C.ar  1 <0>         0.0050
6    C6      -30.0521  -11.7550   26.9380  C.2   1 <0>        -0.0158
7    C7      -29.3307  -13.8536   27.1428  C.ar  1 <0>         0.0471
8    C8      -26.9149  -13.2222   28.4537  C.ar  1 <0>         0.0409
9    C9      -30.9438  -12.6416   26.3371  C.2   1 <0>         0.0343
10   C10     -31.6000   -8.4315   25.9688  C.2   1 <0>         0.3223
11   C11     -30.1918  -10.2871   26.9039  C.3   1 <0>         0.0005
12   C12     -32.1834  -12.1879   25.6821  C.3   1 <0>         0.0374
13   C13     -31.6137   -9.8381   26.4350  C.3   1 <0>         0.1101
14   N1      -23.5722  -13.2588   28.0400  N.1   1 <0>        -0.1740
15   N2      -30.4763  -13.9034   26.4442  N.2   1 <0>        -0.3567
16   N3      -25.7312  -12.8274   28.9902  N.pl3 1 <0>        -0.2523
17   N4      -32.1460  -10.7356   25.3698  N.4   1 <0>        -0.2984
18   O1      -30.7300   -7.5448   26.5034  O.co2 1 <0>        -0.4795
19   O2      -32.4181   -8.0005   24.9804  O.co2 1 <0>        -0.2492
20   H1      -28.7083  -15.8697   27.3054  H     1 <0>         0.0639
21   H2      -26.6411  -15.3391   28.4435  H     1 <0>         0.0637
22   H3      -27.6052  -11.2115   28.2877  H     1 <0>         0.0643
23   H4      -30.0010   -9.8882   27.9043  H     1 <0>         0.0334
24   H5      -29.4231   -9.9030   26.2264  H     1 <0>         0.0334
25   H6      -32.3189  -12.7340   24.7465  H     1 <0>         0.0488
26   H7      -33.0309  -12.4016   26.3366  H     1 <0>         0.0488
27   H8      -32.2918   -9.8922   27.2913  H     1 <0>         0.0579
28   H9      -25.7606  -12.2055   29.7355  H     1 <0>         0.1640
29   H10     -31.5514  -10.6148   24.5481  H     1 <0>         0.1231
30   H11     -33.0982  -10.4382   25.1356  H     1 <0>         0.0000
@<TRIPOS>BOND
     1    1   14 3
     2    1   16 1
     3    2    3 ar
     4    2    7 ar
     5    3    8 ar
     6    4    5 ar
     7    4    8 ar
     8    5    6 1
     9    5    7 ar
    10    6    9 2
    11    6   11 1
    12    7   15 1
    13    8   16 1
    14    9   12 1
    15    9   15 1
    16   10   13 1
    17   10   18 1
    18   10   19 2
    19   11   13 1
    20   12   17 1
    21   13   17 1
    22    2   20 1
    23    3   21 1
    24    4   22 1
    25   11   23 1
    26   11   24 1
    27   12   25 1
    28   12   26 1
    29   13   27 1
    30   16   28 1
    31   17   29 1
    32   17   30 1
@<TRIPOS>PROPERTY_DATA
  Total_Score	| 9.2225
  Crash		| -0.5117
  Polar		| 6.7192

@<TRIPOS>MOLECULE
ligand_uncharged8_001
   30    32     0     0     0
SMALL
USER_CHARGES

@<TRIPOS>ATOM
1    C1      -25.0832  -13.0486   29.0646  C.1   1 <0>         0.1709
2    C2      -28.9528  -15.1237   27.7697  C.ar  1 <0>        -0.0360
3    C3      -27.8350  -14.9287   28.6086  C.ar  1 <0>        -0.0380
4    C4      -27.9323  -12.5126   28.2080  C.ar  1 <0>        -0.0305
5    C5      -29.0924  -12.7126   27.4411  C.ar  1 <0>         0.0050
6    C6      -29.9925  -11.8408   26.8336  C.2   1 <0>        -0.0158
7    C7      -29.5677  -14.0048   27.1985  C.ar  1 <0>         0.0471
8    C8      -27.2756  -13.6298   28.7864  C.ar  1 <0>         0.0409
9    C9      -30.9443  -12.6579   26.2179  C.2   1 <0>         0.0343
10   C10     -31.4670   -8.4341   25.9389  C.2   1 <0>         0.3223
11   C11     -30.0718  -10.3619   26.8209  C.3   1 <0>         0.0005
12   C12     -32.1301  -12.1395   25.5295  C.3   1 <0>         0.0374
13   C13     -31.4757   -9.8376   26.4002  C.3   1 <0>         0.1101
14   N1      -24.0773  -12.6315   28.6428  N.1   1 <0>        -0.1740
15   N2      -30.6691  -13.9494   26.4372  N.2   1 <0>        -0.3567
16   N3      -26.1078  -13.5927   29.4806  N.pl3 1 <0>        -0.2523
17   N4      -32.0775  -10.6798   25.3220  N.4   1 <0>        -0.2984
18   O1      -30.7943   -7.4983   26.6521  O.co2 1 <0>        -0.4795
19   O2      -32.4344   -7.9892   25.0904  O.co2 1 <0>        -0.2492
20   H1      -29.3189  -16.0643   27.6051  H     1 <0>         0.0639
21   H2      -27.3892  -15.7547   29.0208  H     1 <0>         0.0637
22   H3      -27.5820  -11.5549   28.3589  H     1 <0>         0.0643
23   H4      -29.8361   -9.9979   27.8188  H     1 <0>         0.0334
24   H5      -29.3002   -9.9839   26.1456  H     1 <0>         0.0334
25   H6      -32.2268  -12.6156   24.5576  H     1 <0>         0.0488
26   H7      -33.0118  -12.3749   26.1237  H     1 <0>         0.0488
27   H8      -32.1550   -9.8981   27.2696  H     1 <0>         0.0579
28   H9      -26.0028  -14.2314   30.2215  H     1 <0>         0.1640
29   H10     -31.5114  -10.5094   24.4785  H     1 <0>         0.1231
30   H11     -33.0319  -10.3504   25.1402  H     1 <0>         0.0000
@<TRIPOS>BOND
     1    1   14 3
     2    1   16 1
     3    2    3 ar
     4    2    7 ar
     5    3    8 ar
     6    4    5 ar
     7    4    8 ar
     8    5    6 1
     9    5    7 ar
    10    6    9 2
    11    6   11 1
    12    7   15 1
    13    8   16 1
    14    9   12 1
    15    9   15 1
    16   10   13 1
    17   10   18 1
    18   10   19 2
    19   11   13 1
    20   12   17 1
    21   13   17 1
    22    2   20 1
    23    3   21 1
    24    4   22 1
    25   11   23 1
    26   11   24 1
    27   12   25 1
    28   12   26 1
    29   13   27 1
    30   16   28 1
    31   17   29 1
    32   17   30 1
@<TRIPOS>PROPERTY_DATA
  Total_Score	| 9.1458
  Crash		| -0.4763
  Polar		| 7.2555

@<TRIPOS>MOLECULE
ligand_uncharged8_002
   30    32     0     0     0
SMALL
USER_CHARGES

@<TRIPOS>ATOM
1    C1      -24.6536  -13.0960   28.5986  C.1   1 <0>         0.1709
2    C2      -28.3942  -14.8499   27.3752  C.ar  1 <0>        -0.0360
3    C3      -27.1909  -14.4930   28.0187  C.ar  1 <0>        -0.0380
4    C4      -27.9173  -12.1621   28.1669  C.ar  1 <0>        -0.0305
5    C5      -29.0824  -12.5231   27.4768  C.ar  1 <0>         0.0050
6    C6      -30.1390  -11.7635   26.9975  C.2   1 <0>        -0.0158
7    C7      -29.3311  -13.8393   27.0970  C.ar  1 <0>         0.0471
8    C8      -26.9305  -13.1483   28.4176  C.ar  1 <0>         0.0409
9    C9      -30.9924  -12.6512   26.3471  C.2   1 <0>         0.0343
10   C10     -31.6162   -8.4459   25.9171  C.2   1 <0>         0.3223
11   C11     -30.2980  -10.2991   26.9863  C.3   1 <0>         0.0005
12   C12     -32.2134  -12.2023   25.6621  C.3   1 <0>         0.0374
13   C13     -31.6791   -9.8425   26.4083  C.3   1 <0>         0.1101
14   N1      -23.6136  -13.3552   28.1522  N.1   1 <0>        -0.1740
15   N2      -30.4877  -13.9013   26.4188  N.2   1 <0>        -0.3567
16   N3      -25.7795  -12.7259   28.9956  N.pl3 1 <0>        -0.2523
17   N4      -32.1502  -10.7566   25.3267  N.4   1 <0>        -0.2984
18   O1      -32.4403   -8.0044   24.9373  O.co2 1 <0>        -0.4795
19   O2      -30.8442   -7.5282   26.5480  O.co2 1 <0>        -0.2492
20   H1      -28.5524  -15.8180   27.0840  H     1 <0>         0.0639
21   H2      -26.4972  -15.2215   28.2078  H     1 <0>         0.0637
22   H3      -27.7657  -11.1839   28.4263  H     1 <0>         0.0643
23   H4      -30.1827   -9.9164   28.0070  H     1 <0>         0.0334
24   H5      -29.4803   -9.8930   26.3786  H     1 <0>         0.0334
25   H6      -32.3228  -12.7580   24.7304  H     1 <0>         0.0488
26   H7      -33.0778  -12.3952   26.2996  H     1 <0>         0.0488
27   H8      -32.4107   -9.8667   27.2191  H     1 <0>         0.0579
28   H9      -25.8146  -11.9030   29.5063  H     1 <0>         0.1640
29   H10     -31.5219  -10.6507   24.5276  H     1 <0>         0.1231
30   H11     -33.0917  -10.4727   25.0416  H     1 <0>         0.0000
@<TRIPOS>BOND
     1    1   14 3
     2    1   16 1
     3    2    3 ar
     4    2    7 ar
     5    3    8 ar
     6    4    5 ar
     7    4    8 ar
     8    5    6 1
     9    5    7 ar
    10    6    9 2
    11    6   11 1
    12    7   15 1
    13    8   16 1
    14    9   12 1
    15    9   15 1
    16   10   13 1
    17   10   18 1
    18   10   19 2
    19   11   13 1
    20   12   17 1
    21   13   17 1
    22    2   20 1
    23    3   21 1
    24    4   22 1
    25   11   23 1
    26   11   24 1
    27   12   25 1
    28   12   26 1
    29   13   27 1
    30   16   28 1
    31   17   29 1
    32   17   30 1
@<TRIPOS>PROPERTY_DATA
  Total_Score	| 8.7988
  Crash		| -0.7799
  Polar		| 6.7379

@<TRIPOS>MOLECULE
ligand_uncharged12_000
   26    28     0     0     0
SMALL
USER_CHARGES

@<TRIPOS>ATOM
1    C1      -28.6512  -15.7899   27.7369  C.ar  1 <0>        -0.0245
2    C2      -29.5413  -15.7738   26.6439  C.ar  1 <0>        -0.0351
3    C3      -28.9926  -13.3790   28.0857  C.ar  1 <0>        -0.0170
4    C4      -29.8848  -13.3771   27.0007  C.ar  1 <0>         0.0059
5    C5      -28.3809  -14.5981   28.4539  C.ar  1 <0>         0.1241
6    C6      -30.6145  -12.4078   26.3887  C.2   1 <0>        -0.0158
7    C7      -30.1483  -14.5504   26.2909  C.ar  1 <0>         0.0471
8    C8      -31.2875  -13.0131   25.3888  C.cat 1 <0>         0.0343
9    C9      -31.4381   -8.7705   25.7041  C.2   1 <0>         0.3223
10   C10     -30.6613  -10.9831   26.6577  C.3   1 <0>         0.0005
11   C11     -32.1511  -12.3040   24.4618  C.3   1 <0>         0.0374
12   C12     -31.1264  -10.1889   25.4021  C.3   1 <0>         0.1101
13   N1      -30.9722  -14.2650   25.3192  N.2   1 <0>        -0.3567
14   N2      -32.3082  -10.8692   24.8023  N.3   1 <0>        -0.2984
15   O1      -32.3209   -8.0839   24.9344  O.co2 1 <0>        -0.4795
16   O2      -30.7672   -8.0813   26.6593  O.co2 1 <0>        -0.2492
17   F1      -27.5556  -14.6247   29.4618  F     1 <0>        -0.2055
18   H1      -28.1929  -16.6648   28.0130  H     1 <0>         0.0647
19   H2      -29.7282  -16.6294   26.1093  H     1 <0>         0.0639
20   H3      -28.7985  -12.5137   28.6006  H     1 <0>         0.0653
21   H4      -31.3504  -10.8233   27.4868  H     1 <0>         0.0334
22   H5      -29.6703  -10.6328   26.9489  H     1 <0>         0.0334
23   H6      -31.7524  -12.3988   23.4503  H     1 <0>         0.0488
24   H7      -33.1479  -12.7489   24.4753  H     1 <0>         0.0488
25   H8      -30.3098  -10.1948   24.6771  H     1 <0>         0.0579
26   H9      -32.6203  -10.3778   23.9623  H     1 <0>         0.1231
@<TRIPOS>BOND
     1    1    2 ar
     2    1    5 ar
     3    2    7 ar
     4    3    4 ar
     5    3    5 ar
     6    4    6 2
     7    4    7 ar
     8    5   17 1
     9    6    8 1
    10    6   10 1
    11    7   13 2
    12    8   11 1
    13    8   13 1
    14    9   12 1
    15    9   15 1
    16    9   16 2
    17   10   12 1
    18   11   14 1
    19   12   14 1
    20    1   18 1
    21    2   19 1
    22    3   20 1
    23   10   21 1
    24   10   22 1
    25   11   23 1
    26   11   24 1
    27   12   25 1
    28   14   26 1
@<TRIPOS>PROPERTY_DATA
  Total_Score	| 6.1408
  Crash		| -1.1389
  Polar		| 4.2241

@<TRIPOS>MOLECULE
ligand_uncharged12_001
   26    28     0     0     0
SMALL
USER_CHARGES

@<TRIPOS>ATOM
1    C1      -28.6744  -15.8473   27.7496  C.ar  1 <0>        -0.0245
2    C2      -29.5563  -15.8294   26.6480  C.ar  1 <0>        -0.0351
3    C3      -28.9340  -13.4275   28.0364  C.ar  1 <0>        -0.0170
4    C4      -29.8194  -13.4246   26.9431  C.ar  1 <0>         0.0059
5    C5      -28.3621  -14.6538   28.4401  C.ar  1 <0>         0.1241
6    C6      -30.5188  -12.4488   26.3058  C.2   1 <0>        -0.0158
7    C7      -30.1210  -14.6022   26.2595  C.ar  1 <0>         0.0471
8    C8      -31.2188  -13.0594   25.3283  C.cat 1 <0>         0.0343
9    C9      -31.6616   -8.8448   25.8135  C.2   1 <0>         0.3223
10   C10     -30.5655  -11.0236   26.5911  C.3   1 <0>         0.0005
11   C11     -32.1611  -12.3659   24.4703  C.3   1 <0>         0.0374
12   C12     -31.2491  -10.2181   25.4377  C.3   1 <0>         0.1101
13   N1      -30.9440  -14.3228   25.2811  N.2   1 <0>        -0.3567
14   N2      -32.4210  -10.9710   24.9081  N.3   1 <0>        -0.2984
15   O1      -31.1274   -8.2265   26.8918  O.co2 1 <0>        -0.4795
16   O2      -32.3169   -8.0756   24.9095  O.co2 1 <0>        -0.2492
17   F1      -27.5419  -14.6829   29.4538  F     1 <0>        -0.2055
18   H1      -28.2550  -16.7300   28.0457  H     1 <0>         0.0647
19   H2      -29.7826  -16.6912   26.1468  H     1 <0>         0.0639
20   H3      -28.7132  -12.5590   28.5292  H     1 <0>         0.0653
21   H4      -31.1113  -10.8812   27.5271  H     1 <0>         0.0334
22   H5      -29.5480  -10.6453   26.7255  H     1 <0>         0.0334
23   H6      -31.7785  -12.3624   23.4501  H     1 <0>         0.0488
24   H7      -33.1125  -12.8975   24.4756  H     1 <0>         0.0488
25   H8      -30.5251  -10.1096   24.6251  H     1 <0>         0.0579
26   H9      -32.8555  -10.4603   24.1345  H     1 <0>         0.1231
@<TRIPOS>BOND
     1    1    2 ar
     2    1    5 ar
     3    2    7 ar
     4    3    4 ar
     5    3    5 ar
     6    4    6 2
     7    4    7 ar
     8    5   17 1
     9    6    8 1
    10    6   10 1
    11    7   13 2
    12    8   11 1
    13    8   13 1
    14    9   12 1
    15    9   15 1
    16    9   16 2
    17   10   12 1
    18   11   14 1
    19   12   14 1
    20    1   18 1
    21    2   19 1
    22    3   20 1
    23   10   21 1
    24   10   22 1
    25   11   23 1
    26   11   24 1
    27   12   25 1
    28   14   26 1
@<TRIPOS>PROPERTY_DATA
  Total_Score	| 6.1009
  Crash		| -1.0595
  Polar		| 4.0462

@<TRIPOS>MOLECULE
ligand_uncharged12_002
   26    28     0     0     0
SMALL
USER_CHARGES

@<TRIPOS>ATOM
1    C1      -29.2343  -16.1377   27.1798  C.ar  1 <0>        -0.0245
2    C2      -30.1516  -15.9758   26.1229  C.ar  1 <0>        -0.0351
3    C3      -29.2786  -13.7299   27.6354  C.ar  1 <0>        -0.0170
4    C4      -30.1980  -13.5837   26.5803  C.ar  1 <0>         0.0059
5    C5      -28.7970  -15.0228   27.9333  C.ar  1 <0>         0.1241
6    C6      -30.8248  -12.5142   26.0322  C.2   1 <0>        -0.0158
7    C7      -30.6221  -14.6839   25.8327  C.ar  1 <0>         0.0471
8    C8      -31.6095  -12.9998   25.0508  C.cat 1 <0>         0.0343
9    C9      -31.6779   -8.8169   25.8557  C.2   1 <0>         0.3223
10   C10     -30.7332  -11.1170   26.4008  C.3   1 <0>         0.0005
11   C11     -32.4822  -12.1676   24.2524  C.3   1 <0>         0.0374
12   C12     -31.3688  -10.1671   25.3360  C.3   1 <0>         0.1101
13   N1      -31.4437  -14.2763   24.9015  N.2   1 <0>        -0.3567
14   N2      -32.6034  -10.7858   24.7767  N.3   1 <0>        -0.2984
15   O1      -31.1727   -8.3521   27.0208  O.co2 1 <0>        -0.4795
16   O2      -32.3799   -7.9521   25.0940  O.co2 1 <0>        -0.2492
17   F1      -27.9474  -15.1921   28.9116  F     1 <0>        -0.2055
18   H1      -28.8809  -17.0669   27.3950  H     1 <0>         0.0647
19   H2      -30.4709  -16.7777   25.5770  H     1 <0>         0.0639
20   H3      -28.9612  -12.9170   28.1665  H     1 <0>         0.0653
21   H4      -31.2517  -11.0086   27.3570  H     1 <0>         0.0334
22   H5      -29.6830  -10.8470   26.5421  H     1 <0>         0.0334
23   H6      -32.0963  -12.1384   23.2329  H     1 <0>         0.0488
24   H7      -33.4869  -12.5971   24.2346  H     1 <0>         0.0488
25   H8      -30.6556  -10.0456   24.5176  H     1 <0>         0.0579
26   H9      -32.9926  -10.2029   24.0306  H     1 <0>         0.1231
@<TRIPOS>BOND
     1    1    2 ar
     2    1    5 ar
     3    2    7 ar
     4    3    4 ar
     5    3    5 ar
     6    4    6 2
     7    4    7 ar
     8    5   17 1
     9    6    8 1
    10    6   10 1
    11    7   13 2
    12    8   11 1
    13    8   13 1
    14    9   12 1
    15    9   15 1
    16    9   16 2
    17   10   12 1
    18   11   14 1
    19   12   14 1
    20    1   18 1
    21    2   19 1
    22    3   20 1
    23   10   21 1
    24   10   22 1
    25   11   23 1
    26   11   24 1
    27   12   25 1
    28   14   26 1
@<TRIPOS>PROPERTY_DATA
  Total_Score	| 5.8125
  Crash		| -1.8191
  Polar		| 3.9472

@<TRIPOS>MOLECULE
ligand_uncharged15_000
   26    28     0     0     0
SMALL
USER_CHARGES

@<TRIPOS>ATOM
1    C1      -28.8364  -15.9785   27.4718  C.ar  1 <0>        -0.0466
2    C2      -29.7329  -15.9025   26.3874  C.ar  1 <0>        -0.0368
3    C3      -29.0546  -13.5710   27.8688  C.ar  1 <0>        -0.0392
4    C4      -29.9510  -13.5071   26.7885  C.ar  1 <0>         0.0042
5    C5      -28.4934  -14.8198   28.2064  C.ar  1 <0>         0.0141
6    C6      -30.6419  -12.4964   26.1994  C.2   1 <0>        -0.0158
7    C7      -30.2843  -14.6472   26.0576  C.ar  1 <0>         0.0470
8    C8      -31.3668  -13.0545   25.2088  C.cat 1 <0>         0.0343
9    C9      -31.7294   -8.8643   25.8748  C.2   1 <0>         0.3223
10   C10     -30.6512  -11.0779   26.5273  C.3   1 <0>         0.0005
11   C11     -32.2998  -12.3138   24.3825  C.3   1 <0>         0.0374
12   C12     -31.3420  -10.2173   25.4197  C.3   1 <0>         0.1101
13   N1      -31.1100  -14.3213   25.1045  N.2   1 <0>        -0.3567
14   N2      -32.5319  -10.9307   24.8783  N.3   1 <0>        -0.2984
15   O1      -31.2211   -8.3300   27.0086  O.co2 1 <0>        -0.4795
16   O2      -32.3369   -8.0199   25.0136  O.co2 1 <0>        -0.2492
17   I1      -27.1800  -14.9648   29.7791  I     1 <0>        -0.0438
18   H1      -28.4203  -16.8740   27.7209  H     1 <0>         0.0629
19   H2      -29.9796  -16.7343   25.8524  H     1 <0>         0.0639
20   H3      -28.8084  -12.7319   28.3969  H     1 <0>         0.0634
21   H4      -31.1744  -10.9659   27.4783  H     1 <0>         0.0334
22   H5      -29.6234  -10.7266   26.6546  H     1 <0>         0.0334
23   H6      -31.9214  -12.2767   23.3610  H     1 <0>         0.0488
24   H7      -33.2607  -12.8296   24.3733  H     1 <0>         0.0488
25   H8      -30.6300  -10.0877   24.5991  H     1 <0>         0.0579
26   H9      -32.9688  -10.3902   24.1261  H     1 <0>         0.1231
@<TRIPOS>BOND
     1    1    2 ar
     2    1    5 ar
     3    2    7 ar
     4    3    4 ar
     5    3    5 ar
     6    4    6 2
     7    4    7 ar
     8    5   17 1
     9    6    8 1
    10    6   10 1
    11    7   13 2
    12    8   11 1
    13    8   13 1
    14    9   12 1
    15    9   15 1
    16    9   16 2
    17   10   12 1
    18   11   14 1
    19   12   14 1
    20    1   18 1
    21    2   19 1
    22    3   20 1
    23   10   21 1
    24   10   22 1
    25   11   23 1
    26   11   24 1
    27   12   25 1
    28   14   26 1
@<TRIPOS>PROPERTY_DATA
  Total_Score	| 6.4420
  Crash		| -1.2348
  Polar		| 4.0197

@<TRIPOS>MOLECULE
ligand_uncharged15_001
   26    28     0     0     0
SMALL
USER_CHARGES

@<TRIPOS>ATOM
1    C1      -28.8015  -15.9714   27.4707  C.ar  1 <0>        -0.0466
2    C2      -29.7024  -15.8988   26.3875  C.ar  1 <0>        -0.0368
3    C3      -29.0245  -13.5640   27.8630  C.ar  1 <0>        -0.0392
4    C4      -29.9241  -13.5052   26.7822  C.ar  1 <0>         0.0042
5    C5      -28.4640  -14.8126   28.2047  C.ar  1 <0>         0.0141
6    C6      -30.6111  -12.4929   26.1900  C.2   1 <0>        -0.0158
7    C7      -30.2533  -14.6492   26.0576  C.ar  1 <0>         0.0470
8    C8      -31.3340  -13.0557   25.2002  C.cat 1 <0>         0.0343
9    C9      -31.7221   -8.8674   25.8793  C.2   1 <0>         0.3223
10   C10     -30.6259  -11.0785   26.5247  C.3   1 <0>         0.0005
11   C11     -32.2678  -12.3149   24.3752  C.3   1 <0>         0.0374
12   C12     -31.3169  -10.2148   25.4187  C.3   1 <0>         0.1101
13   N1      -31.0830  -14.3205   25.1012  N.2   1 <0>        -0.3567
14   N2      -32.4991  -10.9319   24.8650  N.3   1 <0>        -0.2984
15   O1      -32.3498   -8.0308   25.0208  O.co2 1 <0>        -0.4795
16   O2      -31.2058   -8.3208   27.0052  O.co2 1 <0>        -0.2492
17   I1      -27.1491  -14.9495   29.7763  I     1 <0>        -0.0438
18   H1      -28.3868  -16.8682   27.7247  H     1 <0>         0.0629
19   H2      -29.9500  -16.7364   25.8574  H     1 <0>         0.0639
20   H3      -28.7797  -12.7230   28.3879  H     1 <0>         0.0634
21   H4      -31.1501  -10.9682   27.4759  H     1 <0>         0.0334
22   H5      -29.5985  -10.7267   26.6559  H     1 <0>         0.0334
23   H6      -31.8888  -12.2810   23.3544  H     1 <0>         0.0488
24   H7      -33.2312  -12.8271   24.3652  H     1 <0>         0.0488
25   H8      -30.6009  -10.0701   24.6056  H     1 <0>         0.0579
26   H9      -32.9276  -10.3900   24.1108  H     1 <0>         0.1231
@<TRIPOS>BOND
     1    1    2 ar
     2    1    5 ar
     3    2    7 ar
     4    3    4 ar
     5    3    5 ar
     6    4    6 2
     7    4    7 ar
     8    5   17 1
     9    6    8 1
    10    6   10 1
    11    7   13 2
    12    8   11 1
    13    8   13 1
    14    9   12 1
    15    9   15 1
    16    9   16 2
    17   10   12 1
    18   11   14 1
    19   12   14 1
    20    1   18 1
    21    2   19 1
    22    3   20 1
    23   10   21 1
    24   10   22 1
    25   11   23 1
    26   11   24 1
    27   12   25 1
    28   14   26 1
@<TRIPOS>PROPERTY_DATA
  Total_Score	| 6.4392
  Crash		| -1.2135
  Polar		| 4.0214

@<TRIPOS>MOLECULE
ligand_uncharged15_002
   26    28     0     0     0
SMALL
USER_CHARGES

@<TRIPOS>ATOM
1    C1      -28.8838  -16.0016   27.5549  C.ar  1 <0>        -0.0466
2    C2      -29.7813  -15.9188   26.4691  C.ar  1 <0>        -0.0368
3    C3      -29.0416  -13.5774   27.9072  C.ar  1 <0>        -0.0392
4    C4      -29.9355  -13.5076   26.8191  C.ar  1 <0>         0.0042
5    C5      -28.5131  -14.8363   28.2638  C.ar  1 <0>         0.0141
6    C6      -30.6011  -12.4873   26.2122  C.2   1 <0>        -0.0158
7    C7      -30.2977  -14.6566   26.1178  C.ar  1 <0>         0.0470
8    C8      -31.3255  -13.0453   25.2194  C.cat 1 <0>         0.0343
9    C9      -31.6353   -8.8250   25.7590  C.2   1 <0>         0.3223
10   C10     -30.5970  -11.0663   26.5313  C.3   1 <0>         0.0005
11   C11     -32.2397  -12.2978   24.3828  C.3   1 <0>         0.0374
12   C12     -31.2468  -10.2072   25.3883  C.3   1 <0>         0.1101
13   N1      -31.1102  -14.3175   25.1501  N.2   1 <0>        -0.3567
14   N2      -32.4431  -10.9064   24.8522  N.3   1 <0>        -0.2984
15   O1      -32.4401   -8.0957   24.9381  O.co2 1 <0>        -0.4795
16   O2      -31.1217   -8.2142   26.8567  O.co2 1 <0>        -0.2492
17   I1      -27.1733  -14.9810   29.8128  I     1 <0>        -0.0438
18   H1      -28.4962  -16.9060   27.8249  H     1 <0>         0.0629
19   H2      -30.0539  -16.7603   25.9503  H     1 <0>         0.0639
20   H3      -28.7660  -12.7325   28.4130  H     1 <0>         0.0634
21   H4      -31.1461  -10.9288   27.4661  H     1 <0>         0.0334
22   H5      -29.5717  -10.7285   26.6883  H     1 <0>         0.0334
23   H6      -31.8588  -12.2817   23.3619  H     1 <0>         0.0488
24   H7      -33.2146  -12.7861   24.3826  H     1 <0>         0.0488
25   H8      -30.5072  -10.1192   24.5867  H     1 <0>         0.0579
26   H9      -32.8718  -10.3634   24.1045  H     1 <0>         0.1231
@<TRIPOS>BOND
     1    1    2 ar
     2    1    5 ar
     3    2    7 ar
     4    3    4 ar
     5    3    5 ar
     6    4    6 2
     7    4    7 ar
     8    5   17 1
     9    6    8 1
    10    6   10 1
    11    7   13 2
    12    8   11 1
    13    8   13 1
    14    9   12 1
    15    9   15 1
    16    9   16 2
    17   10   12 1
    18   11   14 1
    19   12   14 1
    20    1   18 1
    21    2   19 1
    22    3   20 1
    23   10   21 1
    24   10   22 1
    25   11   23 1
    26   11   24 1
    27   12   25 1
    28   14   26 1
@<TRIPOS>PROPERTY_DATA
  Total_Score	| 6.2122
  Crash		| -1.3174
  Polar		| 4.0582

@<TRIPOS>MOLECULE
ligand_uncharged22_000
   32    34     0     0     0
SMALL
USER_CHARGES

@<TRIPOS>ATOM
1    C1      -29.4755  -15.8968   26.5729  C.ar  1 <0>        -0.0359
2    C2      -28.5617  -15.9170   27.6467  C.ar  1 <0>        -0.0334
3    C3      -28.8500  -13.5077   27.9769  C.ar  1 <0>        -0.0259
4    C4      -29.7628  -13.4994   26.9066  C.ar  1 <0>         0.0050
5    C5      -30.4955  -12.4839   26.3027  C.2   1 <0>        -0.0158
6    C6      -30.0624  -14.6728   26.2101  C.ar  1 <0>         0.0471
7    C7      -28.2307  -14.7273   28.3395  C.ar  1 <0>         0.1057
8    C8      -31.2205  -13.0925   25.2776  C.2   1 <0>         0.0343
9    C9      -31.6456   -8.8598   25.8132  C.2   1 <0>         0.3223
10   C10     -30.5569  -11.0346   26.6031  C.3   1 <0>         0.0005
11   C11     -32.1449  -12.3488   24.4036  C.3   1 <0>         0.0374
12   C12     -31.2300  -10.2318   25.4401  C.3   1 <0>         0.1101
13   N1      -30.9253  -14.4061   25.2140  N.2   1 <0>        -0.3567
14   N2      -25.8525  -13.5871   29.4679  N.pl3 1 <0>        -0.2035
15   N3      -32.4048  -10.9693   24.8921  N.4   1 <0>        -0.2984
16   O1      -31.0450   -8.2011   26.8310  O.co2 1 <0>        -0.4795
17   O2      -32.3890   -8.1259   24.9516  O.co2 1 <0>        -0.2492
18   O3      -27.7905  -14.4657   31.0105  O.2   1 <0>        -0.1533
19   O4      -26.3442  -16.1544   29.8197  O.2   1 <0>        -0.1533
20   S1      -27.0593  -14.7464   29.6283  S.o2  1 <0>         0.0560
21   H1      -29.7043  -16.7549   26.0661  H     1 <0>         0.0639
22   H2      -28.1308  -16.8043   27.9108  H     1 <0>         0.0638
23   H3      -28.6344  -12.6387   28.4705  H     1 <0>         0.0644
24   H4      -31.1145  -10.9022   27.5328  H     1 <0>         0.0334
25   H5      -29.5415  -10.6583   26.7539  H     1 <0>         0.0334
26   H6      -31.7354  -12.3138   23.3939  H     1 <0>         0.0488
27   H7      -33.0982  -12.8767   24.3654  H     1 <0>         0.0488
28   H8      -30.4950  -10.1249   24.6381  H     1 <0>         0.0579
29   H9      -26.0317  -12.6639   29.7077  H     1 <0>         0.1442
30   H10     -25.0085  -13.8233   29.0510  H     1 <0>         0.1442
31   H11     -32.7940  -10.4400   24.1075  H     1 <0>         0.1231
32   H12     -33.1135  -11.0230   25.6279  H     1 <0>         0.0000
@<TRIPOS>BOND
     1    1    2 ar
     2    1    6 ar
     3    2    7 ar
     4    3    4 ar
     5    3    7 ar
     6    4    5 1
     7    4    6 ar
     8    5    8 2
     9    5   10 1
    10    6   13 1
    11    7   20 1
    12    8   11 1
    13    8   13 1
    14    9   12 1
    15    9   16 1
    16    9   17 2
    17   10   12 1
    18   11   15 1
    19   12   15 1
    20   14   20 1
    21   18   20 2
    22   19   20 2
    23    1   21 1
    24    2   22 1
    25    3   23 1
    26   10   24 1
    27   10   25 1
    28   11   26 1
    29   11   27 1
    30   12   28 1
    31   14   29 1
    32   14   30 1
    33   15   31 1
    34   15   32 1
@<TRIPOS>PROPERTY_DATA
  Total_Score	| 7.7158
  Crash		| -1.2629
  Polar		| 4.8451

@<TRIPOS>MOLECULE
ligand_uncharged22_001
   32    34     0     0     0
SMALL
USER_CHARGES

@<TRIPOS>ATOM
1    C1      -29.5124  -15.9017   26.5134  C.ar  1 <0>        -0.0359
2    C2      -28.5975  -15.9375   27.5863  C.ar  1 <0>        -0.0334
3    C3      -28.9129  -13.5418   27.9646  C.ar  1 <0>        -0.0259
4    C4      -29.8205  -13.5152   26.8859  C.ar  1 <0>         0.0050
5    C5      -30.5544  -12.4963   26.2929  C.2   1 <0>        -0.0158
6    C6      -30.1110  -14.6792   26.1753  C.ar  1 <0>         0.0471
7    C7      -28.2953  -14.7646   28.3145  C.ar  1 <0>         0.1057
8    C8      -31.2774  -13.0901   25.2592  C.2   1 <0>         0.0343
9    C9      -31.7285   -8.8734   25.8716  C.2   1 <0>         0.3223
10   C10     -30.6350  -11.0551   26.6198  C.3   1 <0>         0.0005
11   C11     -32.1942  -12.3370   24.3938  C.3   1 <0>         0.0374
12   C12     -31.3083  -10.2317   25.4674  C.3   1 <0>         0.1101
13   N1      -30.9710  -14.3982   25.1759  N.2   1 <0>        -0.3567
14   N2      -25.8792  -13.7081   29.4317  N.pl3 1 <0>        -0.2035
15   N3      -32.4720  -10.9683   24.9021  N.4   1 <0>        -0.2984
16   O1      -32.3513   -8.0711   24.9782  O.co2 1 <0>        -0.4795
17   O2      -31.1908   -8.2700   26.9558  O.co2 1 <0>        -0.2492
18   O3      -27.8447  -14.5059   31.0015  O.2   1 <0>        -0.1533
19   O4      -26.4593  -16.2354   29.8130  O.2   1 <0>        -0.1533
20   S1      -27.1327  -14.8092   29.6106  S.o2  1 <0>         0.0560
21   H1      -29.7317  -16.7500   25.9809  H     1 <0>         0.0639
22   H2      -28.1541  -16.8201   27.8335  H     1 <0>         0.0638
23   H3      -28.7041  -12.6816   28.4700  H     1 <0>         0.0644
24   H4      -31.1987  -10.9422   27.5502  H     1 <0>         0.0334
25   H5      -29.6204  -10.6772   26.7890  H     1 <0>         0.0334
26   H6      -31.7768  -12.2866   23.3863  H     1 <0>         0.0488
27   H7      -33.1408  -12.8743   24.3399  H     1 <0>         0.0488
28   H8      -30.5650  -10.0995   24.6767  H     1 <0>         0.0579
29   H9      -26.0239  -12.7693   29.6341  H     1 <0>         0.1442
30   H10     -25.0457  -13.9839   29.0129  H     1 <0>         0.1442
31   H11     -32.8608  -10.4312   24.1270  H     1 <0>         0.1231
32   H12     -33.1760  -11.0465   25.6369  H     1 <0>         0.0000
@<TRIPOS>BOND
     1    1    2 ar
     2    1    6 ar
     3    2    7 ar
     4    3    4 ar
     5    3    7 ar
     6    4    5 1
     7    4    6 ar
     8    5    8 2
     9    5   10 1
    10    6   13 1
    11    7   20 1
    12    8   11 1
    13    8   13 1
    14    9   12 1
    15    9   16 1
    16    9   17 2
    17   10   12 1
    18   11   15 1
    19   12   15 1
    20   14   20 1
    21   18   20 2
    22   19   20 2
    23    1   21 1
    24    2   22 1
    25    3   23 1
    26   10   24 1
    27   10   25 1
    28   11   26 1
    29   11   27 1
    30   12   28 1
    31   14   29 1
    32   14   30 1
    33   15   31 1
    34   15   32 1
@<TRIPOS>PROPERTY_DATA
  Total_Score	| 7.4825
  Crash		| -1.2709
  Polar		| 4.8292

@<TRIPOS>MOLECULE
ligand_uncharged22_002
   32    34     0     0     0
SMALL
USER_CHARGES

@<TRIPOS>ATOM
1    C1      -29.4168  -15.8785   26.5018  C.ar  1 <0>        -0.0359
2    C2      -28.4870  -15.8796   27.5643  C.ar  1 <0>        -0.0334
3    C3      -28.7805  -13.4657   27.8668  C.ar  1 <0>        -0.0259
4    C4      -29.7102  -13.4812   26.8108  C.ar  1 <0>         0.0050
5    C5      -30.4641  -12.4790   26.2083  C.2   1 <0>        -0.0158
6    C6      -30.0233  -14.6641   26.1384  C.ar  1 <0>         0.0471
7    C7      -28.1674  -14.6812   28.2487  C.ar  1 <0>         0.1057
8    C8      -31.2331  -13.1049   25.2307  C.2   1 <0>         0.0343
9    C9      -31.6487   -8.8729   25.7463  C.2   1 <0>         0.3223
10   C10     -30.5294  -11.0320   26.5066  C.3   1 <0>         0.0005
11   C11     -32.2001  -12.3756   24.3897  C.3   1 <0>         0.0374
12   C12     -31.2471  -10.2439   25.3678  C.3   1 <0>         0.1101
13   N1      -30.9200  -14.4163   25.1676  N.2   1 <0>        -0.3567
14   N2      -26.2460  -16.1662   29.8462  N.pl3 1 <0>        -0.2035
15   N3      -32.4425  -10.9866   24.8727  N.4   1 <0>        -0.2984
16   O1      -31.0147   -8.2120   26.7416  O.co2 1 <0>        -0.4795
17   O2      -32.3710   -8.1286   24.8772  O.co2 1 <0>        -0.2492
18   O3      -25.9408  -13.5550   29.4304  O.2   1 <0>        -0.1533
19   O4      -27.8013  -14.3363   30.9099  O.2   1 <0>        -0.1533
20   S1      -27.0306  -14.7123   29.5688  S.o2  1 <0>         0.0560
21   H1      -29.6523  -16.7454   26.0144  H     1 <0>         0.0639
22   H2      -28.0511  -16.7626   27.8325  H     1 <0>         0.0638
23   H3      -28.5660  -12.5927   28.3492  H     1 <0>         0.0644
24   H4      -31.0578  -10.9079   27.4527  H     1 <0>         0.0334
25   H5      -29.5134  -10.6484   26.6250  H     1 <0>         0.0334
26   H6      -31.8366  -12.3448   23.3638  H     1 <0>         0.0488
27   H7      -33.1509  -12.8995   24.4005  H     1 <0>         0.0488
28   H8      -30.5459  -10.1408   24.5312  H     1 <0>         0.0579
29   H9      -25.4556  -16.3939   29.3284  H     1 <0>         0.1442
30   H10     -26.6738  -16.8452   30.3954  H     1 <0>         0.1442
31   H11     -32.8603  -10.4693   24.1008  H     1 <0>         0.1231
32   H12     -33.1207  -11.0304   25.6378  H     1 <0>         0.0000
@<TRIPOS>BOND
     1    1    2 ar
     2    1    6 ar
     3    2    7 ar
     4    3    4 ar
     5    3    7 ar
     6    4    5 1
     7    4    6 ar
     8    5    8 2
     9    5   10 1
    10    6   13 1
    11    7   20 1
    12    8   11 1
    13    8   13 1
    14    9   12 1
    15    9   16 1
    16    9   17 2
    17   10   12 1
    18   11   15 1
    19   12   15 1
    20   14   20 1
    21   18   20 2
    22   19   20 2
    23    1   21 1
    24    2   22 1
    25    3   23 1
    26   10   24 1
    27   10   25 1
    28   11   26 1
    29   11   27 1
    30   12   28 1
    31   14   29 1
    32   14   30 1
    33   15   31 1
    34   15   32 1
@<TRIPOS>PROPERTY_DATA
  Total_Score	| 7.4219
  Crash		| -1.3217
  Polar		| 5.0329

@<TRIPOS>MOLECULE
ligand_hydrophobic30_000
   39    41     0     0     0
SMALL
USER_CHARGES

@<TRIPOS>ATOM
1    C1      -28.7072  -15.8337   27.8843  C.ar  1 <0>        -0.0566
2    C2      -29.5917  -15.8527   26.7902  C.ar  1 <0>        -0.0375
3    C3      -28.8708  -13.4049   28.0246  C.ar  1 <0>        -0.0491
4    C4      -29.7959  -13.4392   26.9654  C.ar  1 <0>         0.0035
5    C5      -30.5357  -12.4396   26.3357  C.2   1 <0>        -0.0159
6    C6      -28.2916  -14.6139   28.4811  C.ar  1 <0>        -0.0464
7    C7      -30.1254  -14.6339   26.3359  C.ar  1 <0>         0.0470
8    C8      -31.2669  -13.0817   25.3359  C.2   1 <0>         0.0343
9    C9      -31.6931   -8.8347   25.8032  C.2   1 <0>         0.3223
10   C10     -30.6167  -10.9913   26.6199  C.3   1 <0>         0.0005
11   C11     -32.1886  -12.3495   24.4440  C.3   1 <0>         0.0374
12   C12     -31.2910  -10.2113   25.4436  C.3   1 <0>         0.1101
13   C13     -25.5693  -16.4653   30.1806  C.3   1 <0>        -0.0624
14   C14     -25.4898  -15.5202   27.8102  C.3   1 <0>        -0.0624
15   C15     -27.2849  -14.6161   29.5803  C.3   1 <0>        -0.0253
16   C16     -25.8498  -15.2147   29.2962  C.3   1 <0>        -0.0427
17   N1      -30.9779  -14.3964   25.3202  N.2   1 <0>        -0.3567
18   N2      -32.4633  -10.9657   24.9151  N.4   1 <0>        -0.2984
19   O1      -32.3592   -8.0809   24.9000  O.co2 1 <0>        -0.4795
20   O2      -31.1271   -8.1891   26.8476  O.co2 1 <0>        -0.2492
21   H1      -28.3462  -16.7225   28.2391  H     1 <0>         0.0621
22   H2      -29.8545  -16.7368   26.3409  H     1 <0>         0.0638
23   H3      -28.6262  -12.5070   28.4529  H     1 <0>         0.0627
24   H4      -31.1875  -10.8613   27.5432  H     1 <0>         0.0334
25   H5      -29.6074  -10.5997   26.7817  H     1 <0>         0.0334
26   H6      -31.7685  -12.3236   23.4357  H     1 <0>         0.0488
27   H7      -33.1383  -12.8858   24.4000  H     1 <0>         0.0488
28   H8      -30.5559  -10.1208   24.6422  H     1 <0>         0.0579
29   H9      -26.2805  -17.2626   29.9599  H     1 <0>         0.0232
30   H10     -25.6579  -16.1991   31.2344  H     1 <0>         0.0232
31   H11     -24.5572  -16.8379   30.0142  H     1 <0>         0.0232
32   H12     -26.0483  -16.3826   27.4344  H     1 <0>         0.0232
33   H13     -25.7099  -14.6541   27.1735  H     1 <0>         0.0232
34   H14     -24.4230  -15.7478   27.7221  H     1 <0>         0.0232
35   H15     -27.1398  -13.5870   29.9361  H     1 <0>         0.0316
36   H16     -27.7559  -15.1373   30.4194  H     1 <0>         0.0316
37   H17     -25.1215  -14.4601   29.6157  H     1 <0>         0.0299
38   H18     -32.8624  -10.4536   24.1235  H     1 <0>         0.1231
39   H19     -33.1672  -11.0186   25.6534  H     1 <0>         0.0000
@<TRIPOS>BOND
     1    1    2 ar
     2    1    6 ar
     3    2    7 ar
     4    3    4 ar
     5    3    6 ar
     6    4    5 1
     7    4    7 ar
     8    5    8 2
     9    5   10 1
    10    6   15 1
    11    7   17 1
    12    8   11 1
    13    8   17 1
    14    9   12 1
    15    9   19 1
    16    9   20 2
    17   10   12 1
    18   11   18 1
    19   12   18 1
    20   13   16 1
    21   14   16 1
    22   15   16 1
    23    1   21 1
    24    2   22 1
    25    3   23 1
    26   10   24 1
    27   10   25 1
    28   11   26 1
    29   11   27 1
    30   12   28 1
    31   13   29 1
    32   13   30 1
    33   13   31 1
    34   14   32 1
    35   14   33 1
    36   14   34 1
    37   15   35 1
    38   15   36 1
    39   16   37 1
    40   18   38 1
    41   18   39 1
@<TRIPOS>PROPERTY_DATA
  Total_Score	| 8.3341
  Crash		| -1.2385
  Polar		| 4.0815

@<TRIPOS>MOLECULE
ligand_hydrophobic30_001
   39    41     0     0     0
SMALL
USER_CHARGES

@<TRIPOS>ATOM
1    C1      -28.4992  -15.7720   27.9553  C.ar  1 <0>        -0.0566
2    C2      -29.3890  -15.8028   26.8680  C.ar  1 <0>        -0.0375
3    C3      -28.7388  -13.3484   28.1394  C.ar  1 <0>        -0.0491
4    C4      -29.6635  -13.3919   27.0701  C.ar  1 <0>         0.0035
5    C5      -30.4175  -12.4206   26.4248  C.2   1 <0>        -0.0159
6    C6      -28.1309  -14.5546   28.5850  C.ar  1 <0>        -0.0464
7    C7      -29.9465  -14.5954   26.4241  C.ar  1 <0>         0.0470
8    C8      -31.1245  -13.0846   25.4201  C.2   1 <0>         0.0343
9    C9      -31.6524   -8.8448   25.8024  C.2   1 <0>         0.3223
10   C10     -30.5479  -10.9690   26.6842  C.3   1 <0>         0.0005
11   C11     -32.0620  -12.3981   24.5081  C.3   1 <0>         0.0374
12   C12     -31.2240  -10.2272   25.4810  C.3   1 <0>         0.1101
13   C13     -25.2676  -15.8199   28.3942  C.3   1 <0>        -0.0624
14   C14     -25.0698  -13.3085   28.8266  C.3   1 <0>        -0.0624
15   C15     -27.1628  -14.5619   29.7216  C.3   1 <0>        -0.0253
16   C16     -25.6390  -14.6535   29.3563  C.3   1 <0>        -0.0427
17   N1      -30.8081  -14.3911   25.4117  N.2   1 <0>        -0.3567
18   N2      -32.3800  -11.0190   24.9566  N.4   1 <0>        -0.2984
19   O1      -32.3199   -8.1239   24.8861  O.co2 1 <0>        -0.4795
20   O2      -31.1010   -8.1777   26.8428  O.co2 1 <0>        -0.2492
21   H1      -28.1168  -16.6587   28.3032  H     1 <0>         0.0621
22   H2      -29.6250  -16.6865   26.4144  H     1 <0>         0.0638
23   H3      -28.5241  -12.4527   28.5834  H     1 <0>         0.0627
24   H4      -31.1425  -10.8400   27.5891  H     1 <0>         0.0334
25   H5      -29.5553  -10.5441   26.8571  H     1 <0>         0.0334
26   H6      -31.6374  -12.3740   23.5045  H     1 <0>         0.0488
27   H7      -32.9979  -12.9565   24.4642  H     1 <0>         0.0488
28   H8      -30.4782  -10.1423   24.6818  H     1 <0>         0.0579
29   H9      -25.6988  -15.6557   27.4013  H     1 <0>         0.0232
30   H10     -25.6336  -16.7740   28.7875  H     1 <0>         0.0232
31   H11     -24.1848  -15.8893   28.2830  H     1 <0>         0.0232
32   H12     -25.5648  -13.0209   27.8996  H     1 <0>         0.0232
33   H13     -25.2169  -12.5225   29.5685  H     1 <0>         0.0232
34   H14     -23.9976  -13.4006   28.6413  H     1 <0>         0.0232
35   H15     -27.3089  -13.6701   30.3368  H     1 <0>         0.0316
36   H16     -27.4082  -15.4077   30.3713  H     1 <0>         0.0316
37   H17     -25.1141  -14.8596   30.2965  H     1 <0>         0.0299
38   H18     -32.7859  -10.5192   24.1569  H     1 <0>         0.1231
39   H19     -33.0796  -11.0726   25.6949  H     1 <0>         0.0000
@<TRIPOS>BOND
     1    1    2 ar
     2    1    6 ar
     3    2    7 ar
     4    3    4 ar
     5    3    6 ar
     6    4    5 1
     7    4    7 ar
     8    5    8 2
     9    5   10 1
    10    6   15 1
    11    7   17 1
    12    8   11 1
    13    8   17 1
    14    9   12 1
    15    9   19 1
    16    9   20 2
    17   10   12 1
    18   11   18 1
    19   12   18 1
    20   13   16 1
    21   14   16 1
    22   15   16 1
    23    1   21 1
    24    2   22 1
    25    3   23 1
    26   10   24 1
    27   10   25 1
    28   11   26 1
    29   11   27 1
    30   12   28 1
    31   13   29 1
    32   13   30 1
    33   13   31 1
    34   14   32 1
    35   14   33 1
    36   14   34 1
    37   15   35 1
    38   15   36 1
    39   16   37 1
    40   18   38 1
    41   18   39 1
@<TRIPOS>PROPERTY_DATA
  Total_Score	| 8.3296
  Crash		| -1.1460
  Polar		| 4.0970

@<TRIPOS>MOLECULE
ligand_hydrophobic30_002
   39    41     0     0     0
SMALL
USER_CHARGES

@<TRIPOS>ATOM
1    C1      -28.8913  -15.9639   27.2948  C.ar  1 <0>        -0.0566
2    C2      -29.8665  -15.8905   26.2758  C.ar  1 <0>        -0.0375
3    C3      -29.0846  -13.5620   27.6940  C.ar  1 <0>        -0.0491
4    C4      -30.0623  -13.5016   26.6845  C.ar  1 <0>         0.0035
5    C5      -30.7965  -12.4503   26.1540  C.2   1 <0>        -0.0159
6    C6      -28.4844  -14.8069   28.0110  C.ar  1 <0>        -0.0464
7    C7      -30.4365  -14.6441   25.9767  C.ar  1 <0>         0.0470
8    C8      -31.6004  -13.0041   25.1595  C.2   1 <0>         0.0343
9    C9      -31.7765   -8.7723   25.8243  C.2   1 <0>         0.3223
10   C10     -30.7881  -11.0129   26.4988  C.3   1 <0>         0.0005
11   C11     -32.5244  -12.1920   24.3496  C.3   1 <0>         0.0374
12   C12     -31.4619  -10.1479   25.3849  C.3   1 <0>         0.1101
13   C13     -25.1352  -13.7959   29.5755  C.3   1 <0>        -0.0624
14   C14     -25.2517  -15.8425   28.0632  C.3   1 <0>        -0.0624
15   C15     -27.4348  -14.8782   29.0675  C.3   1 <0>        -0.0253
16   C16     -25.9954  -14.5594   28.5298  C.3   1 <0>        -0.0427
17   N1      -31.3374  -14.3200   25.0324  N.2   1 <0>        -0.3567
18   N2      -32.6968  -10.8107   24.8741  N.4   1 <0>        -0.2984
19   O1      -31.2080   -8.2303   26.9267  O.co2 1 <0>        -0.4795
20   O2      -32.4032   -7.9267   24.9772  O.co2 1 <0>        -0.2492
21   H1      -28.4696  -16.8707   27.5042  H     1 <0>         0.0621
22   H2      -30.1504  -16.7293   25.7643  H     1 <0>         0.0638
23   H3      -28.8126  -12.7073   28.1862  H     1 <0>         0.0627
24   H4      -31.3146  -10.8904   27.4475  H     1 <0>         0.0334
25   H5      -29.7540  -10.6837   26.6318  H     1 <0>         0.0334
26   H6      -32.1477  -12.1494   23.3255  H     1 <0>         0.0488
27   H7      -33.5058  -12.6700   24.3394  H     1 <0>         0.0488
28   H8      -30.7589  -10.0563   24.5537  H     1 <0>         0.0579
29   H9      -24.9521  -14.4143   30.4576  H     1 <0>         0.0232
30   H10     -25.6432  -12.8811   29.8897  H     1 <0>         0.0232
31   H11     -24.1723  -13.5092   29.1427  H     1 <0>         0.0232
32   H12     -25.0782  -16.5181   28.9048  H     1 <0>         0.0232
33   H13     -25.8398  -16.3674   27.3088  H     1 <0>         0.0232
34   H14     -24.2852  -15.5869   27.6225  H     1 <0>         0.0232
35   H15     -27.7096  -14.1736   29.8594  H     1 <0>         0.0316
36   H16     -27.4489  -15.8670   29.5387  H     1 <0>         0.0316
37   H17     -26.0761  -13.8967   27.6608  H     1 <0>         0.0299
38   H18     -33.0910  -10.2530   24.1103  H     1 <0>         0.1231
39   H19     -33.3764  -10.8419   25.6387  H     1 <0>         0.0000
@<TRIPOS>BOND
     1    1    2 ar
     2    1    6 ar
     3    2    7 ar
     4    3    4 ar
     5    3    6 ar
     6    4    5 1
     7    4    7 ar
     8    5    8 2
     9    5   10 1
    10    6   15 1
    11    7   17 1
    12    8   11 1
    13    8   17 1
    14    9   12 1
    15    9   19 1
    16    9   20 2
    17   10   12 1
    18   11   18 1
    19   12   18 1
    20   13   16 1
    21   14   16 1
    22   15   16 1
    23    1   21 1
    24    2   22 1
    25    3   23 1
    26   10   24 1
    27   10   25 1
    28   11   26 1
    29   11   27 1
    30   12   28 1
    31   13   29 1
    32   13   30 1
    33   13   31 1
    34   14   32 1
    35   14   33 1
    36   14   34 1
    37   15   35 1
    38   15   36 1
    39   16   37 1
    40   18   38 1
    41   18   39 1
@<TRIPOS>PROPERTY_DATA
  Total_Score	| 8.0173
  Crash		| -1.6054
  Polar		| 4.0032

@<TRIPOS>MOLECULE
ligand_uncharged30_000
   31    33     0     0     0
SMALL
USER_CHARGES

@<TRIPOS>ATOM
1    C1      -29.3640  -15.8519   26.7948  C.ar  1 <0>        -0.0367
2    C2      -28.4523  -15.7991   27.8748  C.ar  1 <0>        -0.0464
3    C3      -28.8708  -13.4048   28.1467  C.ar  1 <0>        -0.0389
4    C4      -29.7542  -13.4665   27.0593  C.ar  1 <0>         0.0042
5    C5      -30.4919  -12.4824   26.4207  C.2   1 <0>        -0.0158
6    C6      -29.9968  -14.6634   26.3829  C.ar  1 <0>         0.0470
7    C7      -28.1823  -14.5742   28.5356  C.ar  1 <0>         0.0083
8    C8      -31.1795  -13.1245   25.3909  C.2   1 <0>         0.0343
9    C9      -31.6450   -8.8876   25.8262  C.2   1 <0>         0.3223
10   C10     -30.5385  -11.0287   26.6803  C.3   1 <0>         0.0005
11   C11     -32.0916  -12.4016   24.4866  C.3   1 <0>         0.0374
12   C12     -31.2075  -10.2586   25.4894  C.3   1 <0>         0.1101
13   C13     -25.9473  -13.2193   29.2494  C.3   1 <0>        -0.0135
14   N1      -30.8522  -14.4379   25.3661  N.2   1 <0>        -0.3567
15   N2      -32.3665  -11.0144   24.9421  N.4   1 <0>        -0.2984
16   O1      -31.0867   -8.2135   26.8610  O.co2 1 <0>        -0.4795
17   O2      -32.3693   -8.1677   24.9337  O.co2 1 <0>        -0.2492
18   S1      -27.0326  -14.5360   29.8500  S.3   1 <0>        -0.1286
19   H1      -29.5505  -16.7381   26.3135  H     1 <0>         0.0639
20   H2      -27.9763  -16.6580   28.1642  H     1 <0>         0.0629
21   H3      -28.7299  -12.5182   28.6311  H     1 <0>         0.0635
22   H4      -31.0857  -10.8629   27.6078  H     1 <0>         0.0334
23   H5      -29.5181  -10.6571   26.8129  H     1 <0>         0.0334
24   H6      -31.6690  -12.3783   23.4814  H     1 <0>         0.0488
25   H7      -33.0417  -12.9332   24.4388  H     1 <0>         0.0488
26   H8      -30.4598  -10.1606   24.6973  H     1 <0>         0.0579
27   H9      -25.0899  -13.1419   29.9190  H     1 <0>         0.0344
28   H10     -26.4622  -12.2589   29.2538  H     1 <0>         0.0344
29   H11     -25.5956  -13.4372   28.2393  H     1 <0>         0.0344
30   H12     -32.7437  -10.5010   24.1422  H     1 <0>         0.1231
31   H13     -33.0829  -11.0581   25.6692  H     1 <0>         0.0000
@<TRIPOS>BOND
     1    1    2 ar
     2    1    6 ar
     3    2    7 ar
     4    3    4 ar
     5    3    7 ar
     6    4    5 1
     7    4    6 ar
     8    5    8 2
     9    5   10 1
    10    6   14 1
    11    7   18 1
    12    8   11 1
    13    8   14 1
    14    9   12 1
    15    9   16 1
    16    9   17 2
    17   10   12 1
    18   11   15 1
    19   12   15 1
    20   13   18 1
    21    1   19 1
    22    2   20 1
    23    3   21 1
    24   10   22 1
    25   10   23 1
    26   11   24 1
    27   11   25 1
    28   12   26 1
    29   13   27 1
    30   13   28 1
    31   13   29 1
    32   15   30 1
    33   15   31 1
@<TRIPOS>PROPERTY_DATA
  Total_Score	| 7.1267
  Crash		| -1.1384
  Polar		| 4.0681

@<TRIPOS>MOLECULE
ligand_uncharged30_001
   31    33     0     0     0
SMALL
USER_CHARGES

@<TRIPOS>ATOM
1    C1      -29.2504  -15.8566   26.3290  C.ar  1 <0>        -0.0367
2    C2      -28.2174  -15.8349   27.2894  C.ar  1 <0>        -0.0464
3    C3      -28.5953  -13.4437   27.6863  C.ar  1 <0>        -0.0389
4    C4      -29.6152  -13.4792   26.7193  C.ar  1 <0>         0.0042
5    C5      -30.4465  -12.4934   26.2073  C.2   1 <0>        -0.0158
6    C6      -29.9322  -14.6601   26.0436  C.ar  1 <0>         0.0470
7    C7      -27.8866  -14.6336   27.9691  C.ar  1 <0>         0.0083
8    C8      -31.2419  -13.1179   25.2485  C.2   1 <0>         0.0343
9    C9      -31.7218   -8.8971   25.8684  C.2   1 <0>         0.3223
10   C10     -30.5246  -11.0521   26.5324  C.3   1 <0>         0.0005
11   C11     -32.2558  -12.3867   24.4643  C.3   1 <0>         0.0374
12   C12     -31.3183  -10.2585   25.4430  C.3   1 <0>         0.1101
13   C13     -27.4125  -15.5226   30.4285  C.3   1 <0>        -0.0135
14   N1      -30.9012  -14.4210   25.1426  N.2   1 <0>        -0.3567
15   N2      -32.5201  -11.0228   24.9978  N.4   1 <0>        -0.2984
16   O1      -32.3429   -8.0797   24.9873  O.co2 1 <0>        -0.4795
17   O2      -31.2339   -8.3320   26.9983  O.co2 1 <0>        -0.2492
18   S1      -26.5820  -14.5956   29.1218  S.3   1 <0>        -0.1286
19   H1      -29.4868  -16.7259   25.8420  H     1 <0>         0.0639
20   H2      -27.6936  -16.6934   27.4740  H     1 <0>         0.0629
21   H3      -28.3675  -12.5659   28.1590  H     1 <0>         0.0635
22   H4      -31.0055  -10.9572   27.5058  H     1 <0>         0.0334
23   H5      -29.5147  -10.6368   26.6040  H     1 <0>         0.0334
24   H6      -31.9242  -12.3173   23.4271  H     1 <0>         0.0488
25   H7      -33.1954  -12.9404   24.4833  H     1 <0>         0.0488
26   H8      -30.6614  -10.1291   24.5796  H     1 <0>         0.0579
27   H9      -26.7470  -15.5891   31.2891  H     1 <0>         0.0344
28   H10     -27.6493  -16.5325   30.0897  H     1 <0>         0.0344
29   H11     -28.3310  -15.0137   30.7250  H     1 <0>         0.0344
30   H12     -33.0022  -10.4982   24.2611  H     1 <0>         0.1231
31   H13     -33.1541  -11.1092   25.7960  H     1 <0>         0.0000
@<TRIPOS>BOND
     1    1    2 ar
     2    1    6 ar
     3    2    7 ar
     4    3    4 ar
     5    3    7 ar
     6    4    5 1
     7    4    6 ar
     8    5    8 2
     9    5   10 1
    10    6   14 1
    11    7   18 1
    12    8   11 1
    13    8   14 1
    14    9   12 1
    15    9   16 1
    16    9   17 2
    17   10   12 1
    18   11   15 1
    19   12   15 1
    20   13   18 1
    21    1   19 1
    22    2   20 1
    23    3   21 1
    24   10   22 1
    25   10   23 1
    26   11   24 1
    27   11   25 1
    28   12   26 1
    29   13   27 1
    30   13   28 1
    31   13   29 1
    32   15   30 1
    33   15   31 1
@<TRIPOS>PROPERTY_DATA
  Total_Score	| 6.7326
  Crash		| -1.3358
  Polar		| 3.9967

@<TRIPOS>MOLECULE
ligand_uncharged30_002
   31    33     0     0     0
SMALL
USER_CHARGES

@<TRIPOS>ATOM
1    C1      -29.2271  -15.8311   26.3845  C.ar  1 <0>        -0.0367
2    C2      -28.1969  -15.8064   27.3478  C.ar  1 <0>        -0.0464
3    C3      -28.5695  -13.4139   27.7287  C.ar  1 <0>        -0.0389
4    C4      -29.5865  -13.4514   26.7574  C.ar  1 <0>         0.0042
5    C5      -30.4165  -12.4703   26.2310  C.2   1 <0>        -0.0158
6    C6      -29.9047  -14.6370   26.0895  C.ar  1 <0>         0.0470
7    C7      -27.8681  -14.6053   28.0228  C.ar  1 <0>         0.0083
8    C8      -31.2145  -13.1057   25.2804  C.2   1 <0>         0.0343
9    C9      -31.7222   -8.8878   25.8883  C.2   1 <0>         0.3223
10   C10     -30.5029  -11.0301   26.5485  C.3   1 <0>         0.0005
11   C11     -32.2313  -12.3864   24.4911  C.3   1 <0>         0.0374
12   C12     -31.3071  -10.2435   25.4605  C.3   1 <0>         0.1101
13   C13     -27.3661  -15.5319   30.4600  C.3   1 <0>        -0.0135
14   N1      -30.8701  -14.4056   25.1831  N.2   1 <0>        -0.3567
15   N2      -32.5008  -11.0209   25.0159  N.4   1 <0>        -0.2984
16   O1      -31.2504   -8.3220   27.0239  O.co2 1 <0>        -0.4795
17   O2      -32.3821   -8.0830   25.0253  O.co2 1 <0>        -0.2492
18   S1      -26.5579  -14.5635   29.1709  S.3   1 <0>        -0.1286
19   H1      -29.4655  -16.6990   25.9009  H     1 <0>         0.0639
20   H2      -27.6817  -16.6667   27.5427  H     1 <0>         0.0629
21   H3      -28.3378  -12.5330   28.1948  H     1 <0>         0.0635
22   H4      -30.9807  -10.9342   27.5265  H     1 <0>         0.0334
23   H5      -29.4936  -10.6155   26.6151  H     1 <0>         0.0334
24   H6      -31.8962  -12.3228   23.4549  H     1 <0>         0.0488
25   H7      -33.1672  -12.9446   24.5114  H     1 <0>         0.0488
26   H8      -30.6523  -10.1097   24.5967  H     1 <0>         0.0579
27   H9      -26.7028  -15.5901   31.3226  H     1 <0>         0.0344
28   H10     -27.5724  -16.5444   30.1074  H     1 <0>         0.0344
29   H11     -28.2993  -15.0542   30.7626  H     1 <0>         0.0344
30   H12     -32.9821  -10.5073   24.2723  H     1 <0>         0.1231
31   H13     -33.1368  -11.1046   25.8131  H     1 <0>         0.0000
@<TRIPOS>BOND
     1    1    2 ar
     2    1    6 ar
     3    2    7 ar
     4    3    4 ar
     5    3    7 ar
     6    4    5 1
     7    4    6 ar
     8    5    8 2
     9    5   10 1
    10    6   14 1
    11    7   18 1
    12    8   11 1
    13    8   14 1
    14    9   12 1
    15    9   16 1
    16    9   17 2
    17   10   12 1
    18   11   15 1
    19   12   15 1
    20   13   18 1
    21    1   19 1
    22    2   20 1
    23    3   21 1
    24   10   22 1
    25   10   23 1
    26   11   24 1
    27   11   25 1
    28   12   26 1
    29   13   27 1
    30   13   28 1
    31   13   29 1
    32   15   30 1
    33   15   31 1
@<TRIPOS>PROPERTY_DATA
  Total_Score	| 6.7267
  Crash		| -1.2730
  Polar		| 3.9527

@<TRIPOS>MOLECULE
ligand_uncharged40_000
   38    41     0     0     0
SMALL
USER_CHARGES

@<TRIPOS>ATOM
1    C1      -29.0156  -15.8487   26.9826  C.ar  1 <0>        -0.0541
2    C2      -30.0309  -15.7096   26.0181  C.ar  1 <0>        -0.0374
3    C3      -29.0869  -13.4513   27.4592  C.ar  1 <0>        -0.0466
4    C4      -30.1064  -13.3221   26.4960  C.ar  1 <0>         0.0035
5    C5      -28.5203  -14.7277   27.7035  C.ar  1 <0>        -0.0160
6    C6      -30.8311  -12.2715   26.0369  C.2   1 <0>        -0.0159
7    C7      -30.5567  -14.4308   25.7836  C.ar  1 <0>         0.0470
8    C8      -31.6421  -12.7678   25.0801  C.cat 1 <0>         0.0343
9    C9      -31.7381   -8.5986   25.8095  C.2   1 <0>         0.3223
10   C10     -30.7358  -10.8589   26.3789  C.3   1 <0>         0.0005
11   C11     -32.6247  -11.9724   24.3728  C.3   1 <0>         0.0374
12   C12     -25.7578  -16.6732   30.2302  C.3   1 <0>         0.0712
13   C13     -25.2480  -15.9138   28.9831  C.3   1 <0>         0.0719
14   C14     -27.9250  -15.6426   29.9853  C.3   1 <0>         0.0781
15   C15     -27.4330  -14.9008   28.7091  C.3   1 <0>         0.1070
16   C16     -31.9851  -10.0538   25.8936  C.3   1 <0>         0.1101
17   N1      -31.4639  -14.0391   24.9239  N.2   1 <0>        -0.3567
18   N2      -32.4267  -10.5123   24.5500  N.3   1 <0>        -0.2984
19   O1      -30.9800   -7.9827   26.7486  O.co2 1 <0>        -0.4795
20   O2      -32.5957   -7.8238   25.1060  O.co2 1 <0>        -0.2492
21   O3      -26.8149  -15.9230   30.8623  O.3   1 <0>        -0.3746
22   O4      -26.3424  -15.6240   28.0934  O.3   1 <0>        -0.3674
23   H1      -28.6248  -16.7796   27.1505  H     1 <0>         0.0622
24   H2      -30.3707  -16.5192   25.4930  H     1 <0>         0.0638
25   H3      -28.7672  -12.6234   27.9692  H     1 <0>         0.0628
26   H4      -30.6497  -10.7476   27.4638  H     1 <0>         0.0334
27   H5      -29.8233  -10.4615   25.9207  H     1 <0>         0.0334
28   H6      -32.5470  -12.1802   23.3042  H     1 <0>         0.0488
29   H7      -33.6237  -12.2513   24.7141  H     1 <0>         0.0488
30   H8      -26.1181  -17.6657   29.9459  H     1 <0>         0.0583
31   H9      -24.9424  -16.7993   30.9448  H     1 <0>         0.0583
32   H10     -24.7613  -14.9835   29.2864  H     1 <0>         0.0583
33   H11     -24.5162  -16.5263   28.4530  H     1 <0>         0.0583
34   H12     -28.6355  -15.0122   30.5245  H     1 <0>         0.0589
35   H13     -28.4286  -16.5794   29.7306  H     1 <0>         0.0589
36   H14     -27.0524  -13.9199   29.0143  H     1 <0>         0.0669
37   H15     -32.8073  -10.2213   26.5954  H     1 <0>         0.0579
38   H16     -31.7550  -10.1800   23.8552  H     1 <0>         0.1231
@<TRIPOS>BOND
     1    1    2 ar
     2    1    5 ar
     3    2    7 ar
     4    3    4 ar
     5    3    5 ar
     6    4    6 2
     7    4    7 ar
     8    5   15 1
     9    6    8 1
    10    6   10 1
    11    7   17 2
    12    8   11 1
    13    8   17 1
    14    9   16 1
    15    9   19 1
    16    9   20 2
    17   10   16 1
    18   11   18 1
    19   12   13 1
    20   12   21 1
    21   13   22 1
    22   14   15 1
    23   14   21 1
    24   15   22 1
    25   16   18 1
    26    1   23 1
    27    2   24 1
    28    3   25 1
    29   10   26 1
    30   10   27 1
    31   11   28 1
    32   11   29 1
    33   12   30 1
    34   12   31 1
    35   13   32 1
    36   13   33 1
    37   14   34 1
    38   14   35 1
    39   15   36 1
    40   16   37 1
    41   18   38 1
@<TRIPOS>PROPERTY_DATA
  Total_Score	| 8.7769
  Crash		| -1.4778
  Polar		| 4.6939

@<TRIPOS>MOLECULE
ligand_uncharged40_001
   38    41     0     0     0
SMALL
USER_CHARGES

@<TRIPOS>ATOM
1    C1      -29.0235  -15.8693   26.9238  C.ar  1 <0>        -0.0541
2    C2      -30.0437  -15.7352   25.9604  C.ar  1 <0>        -0.0374
3    C3      -29.1218  -13.4750   27.4042  C.ar  1 <0>        -0.0466
4    C4      -30.1475  -13.3599   26.4475  C.ar  1 <0>         0.0035
5    C5      -28.5456  -14.7475   27.6519  C.ar  1 <0>        -0.0160
6    C6      -30.8943  -12.3156   26.0014  C.2   1 <0>        -0.0159
7    C7      -30.5816  -14.4632   25.7213  C.ar  1 <0>         0.0470
8    C8      -31.7027  -12.8140   25.0460  C.cat 1 <0>         0.0343
9    C9      -31.8766   -8.6543   25.9199  C.2   1 <0>         0.3223
10   C10     -30.8337  -10.9159   26.3873  C.3   1 <0>         0.0005
11   C11     -32.6884  -12.0095   24.3535  C.3   1 <0>         0.0374
12   C12     -25.8684  -16.6474   30.3132  C.3   1 <0>         0.0712
13   C13     -25.3225  -15.9825   29.0251  C.3   1 <0>         0.0719
14   C14     -27.9985  -15.5687   29.9724  C.3   1 <0>         0.0781
15   C15     -27.4672  -14.9103   28.6662  C.3   1 <0>         0.1070
16   C16     -32.0884  -10.1178   25.9119  C.3   1 <0>         0.1101
17   N1      -31.4975  -14.0776   24.8699  N.2   1 <0>        -0.3567
18   N2      -32.4829  -10.5501   24.5477  N.3   1 <0>        -0.2984
19   O1      -32.5427   -7.8567   25.0549  O.co2 1 <0>        -0.4795
20   O2      -31.0324   -8.0629   26.7964  O.co2 1 <0>        -0.2492
21   O3      -26.9086  -15.8272   30.8799  O.3   1 <0>        -0.3746
22   O4      -26.3975  -15.7055   28.1042  O.3   1 <0>        -0.3674
23   H1      -28.6195  -16.7959   27.0744  H     1 <0>         0.0622
24   H2      -30.3841  -16.5433   25.4398  H     1 <0>         0.0638
25   H3      -28.8043  -12.6457   27.9119  H     1 <0>         0.0628
26   H4      -30.7667  -10.8510   27.4752  H     1 <0>         0.0334
27   H5      -29.9217  -10.4933   25.9556  H     1 <0>         0.0334
28   H6      -32.6027  -12.2077   23.2833  H     1 <0>         0.0488
29   H7      -33.6943  -12.2842   24.6888  H     1 <0>         0.0488
30   H8      -26.2526  -17.6486   30.0890  H     1 <0>         0.0583
31   H9      -25.0648  -16.7477   31.0465  H     1 <0>         0.0583
32   H10     -24.8090  -15.0507   29.2768  H     1 <0>         0.0583
33   H11     -24.6070  -16.6526   28.5406  H     1 <0>         0.0583
34   H12     -28.6917  -14.8880   30.4711  H     1 <0>         0.0589
35   H13     -28.5291  -16.5022   29.7607  H     1 <0>         0.0589
36   H14     -27.0563  -13.9300   28.9339  H     1 <0>         0.0669
37   H15     -32.9223  -10.3417   26.5791  H     1 <0>         0.0579
38   H16     -31.7761  -10.2307   23.8851  H     1 <0>         0.1231
@<TRIPOS>BOND
     1    1    2 ar
     2    1    5 ar
     3    2    7 ar
     4    3    4 ar
     5    3    5 ar
     6    4    6 2
     7    4    7 ar
     8    5   15 1
     9    6    8 1
    10    6   10 1
    11    7   17 2
    12    8   11 1
    13    8   17 1
    14    9   16 1
    15    9   19 1
    16    9   20 2
    17   10   16 1
    18   11   18 1
    19   12   13 1
    20   12   21 1
    21   13   22 1
    22   14   15 1
    23   14   21 1
    24   15   22 1
    25   16   18 1
    26    1   23 1
    27    2   24 1
    28    3   25 1
    29   10   26 1
    30   10   27 1
    31   11   28 1
    32   11   29 1
    33   12   30 1
    34   12   31 1
    35   13   32 1
    36   13   33 1
    37   14   34 1
    38   14   35 1
    39   15   36 1
    40   16   37 1
    41   18   38 1
@<TRIPOS>PROPERTY_DATA
  Total_Score	| 8.6126
  Crash		| -1.5538
  Polar		| 4.6079

@<TRIPOS>MOLECULE
ligand_uncharged40_002
   38    41     0     0     0
SMALL
USER_CHARGES

@<TRIPOS>ATOM
1    C1      -28.9629  -15.8779   26.6159  C.ar  1 <0>        -0.0541
2    C2      -30.0867  -15.7406   25.7749  C.ar  1 <0>        -0.0374
3    C3      -28.9662  -13.4855   27.0773  C.ar  1 <0>        -0.0466
4    C4      -30.0843  -13.3592   26.2406  C.ar  1 <0>         0.0035
5    C5      -28.3914  -14.7672   27.3000  C.ar  1 <0>        -0.0160
6    C6      -30.8368  -12.2966   25.8585  C.2   1 <0>        -0.0159
7    C7      -30.6310  -14.4589   25.5840  C.ar  1 <0>         0.0470
8    C8      -31.7690  -12.7766   25.0168  C.cat 1 <0>         0.0343
9    C9      -31.6974   -8.6177   25.8444  C.2   1 <0>         0.3223
10   C10     -30.6761  -10.8949   26.2055  C.3   1 <0>         0.0005
11   C11     -32.8681  -11.9662   24.5327  C.3   1 <0>         0.0374
12   C12     -26.1120  -15.4019   30.8405  C.3   1 <0>         0.0712
13   C13     -26.3373  -16.5599   29.8456  C.3   1 <0>         0.0719
14   C14     -26.8585  -13.8281   29.1795  C.3   1 <0>         0.0781
15   C15     -27.1973  -14.9848   28.1844  C.3   1 <0>         0.1070
16   C16     -31.9698  -10.0696   25.9156  C.3   1 <0>         0.1101
17   N1      -31.6090  -14.0486   24.8243  N.2   1 <0>        -0.3567
18   N2      -32.5922  -10.5122   24.6398  N.3   1 <0>        -0.2984
19   O1      -30.9217   -8.0089   26.7711  O.co2 1 <0>        -0.4795
20   O2      -32.4954   -7.8272   25.0896  O.co2 1 <0>        -0.2492
21   O3      -25.8195  -14.2013   30.1058  O.3   1 <0>        -0.3746
22   O4      -27.4081  -16.1966   28.9530  O.3   1 <0>        -0.3674
23   H1      -28.5656  -16.8131   26.7319  H     1 <0>         0.0622
24   H2      -30.4998  -16.5546   25.3125  H     1 <0>         0.0638
25   H3      -28.5811  -12.6434   27.5042  H     1 <0>         0.0628
26   H4      -30.4357  -10.8130   27.2679  H     1 <0>         0.0334
27   H5      -29.8326  -10.5010   25.6313  H     1 <0>         0.0334
28   H6      -33.0233  -12.1911   23.4814  H     1 <0>         0.0488
29   H7      -33.7791  -12.2061   25.0869  H     1 <0>         0.0488
30   H8      -27.0029  -15.2648   31.4631  H     1 <0>         0.0583
31   H9      -25.2662  -15.6252   31.4941  H     1 <0>         0.0583
32   H10     -25.4207  -16.7640   29.2841  H     1 <0>         0.0583
33   H11     -26.6186  -17.4645   30.3873  H     1 <0>         0.0583
34   H12     -26.4868  -12.9612   28.6319  H     1 <0>         0.0589
35   H13     -27.7545  -13.5322   29.7347  H     1 <0>         0.0589
36   H14     -26.3315  -15.1411   27.5314  H     1 <0>         0.0669
37   H15     -32.6906  -10.2479   26.7202  H     1 <0>         0.0579
38   H16     -31.9896  -10.2280   23.8663  H     1 <0>         0.1231
@<TRIPOS>BOND
     1    1    2 ar
     2    1    5 ar
     3    2    7 ar
     4    3    4 ar
     5    3    5 ar
     6    4    6 2
     7    4    7 ar
     8    5   15 1
     9    6    8 1
    10    6   10 1
    11    7   17 2
    12    8   11 1
    13    8   17 1
    14    9   16 1
    15    9   19 1
    16    9   20 2
    17   10   16 1
    18   11   18 1
    19   12   13 1
    20   12   21 1
    21   13   22 1
    22   14   15 1
    23   14   21 1
    24   15   22 1
    25   16   18 1
    26    1   23 1
    27    2   24 1
    28    3   25 1
    29   10   26 1
    30   10   27 1
    31   11   28 1
    32   11   29 1
    33   12   30 1
    34   12   31 1
    35   13   32 1
    36   13   33 1
    37   14   34 1
    38   14   35 1
    39   15   36 1
    40   16   37 1
    41   18   38 1
@<TRIPOS>PROPERTY_DATA
  Total_Score	| 8.5610
  Crash		| -1.5278
  Polar		| 4.6582

@<TRIPOS>MOLECULE
ligand_uncharged48_000
   47    50     0     0     0
SMALL
USER_CHARGES

@<TRIPOS>ATOM
1    C1      -25.6746  -17.5892   30.2837  C.1   1 <0>         0.0659
2    C2      -26.4937  -10.8804   28.6518  C.ar  1 <0>        -0.0563
3    C3      -27.3680   -9.8052   28.3799  C.ar  1 <0>        -0.0375
4    C4      -28.0364  -12.4372   27.5699  C.ar  1 <0>        -0.0489
5    C5      -28.8925  -11.3592   27.2909  C.ar  1 <0>         0.0035
6    C6      -26.8146  -12.2106   28.2597  C.ar  1 <0>        -0.0436
7    C7      -30.1329  -11.2785   26.6704  C.2   1 <0>        -0.0159
8    C8      -28.5705  -10.0684   27.7043  C.ar  1 <0>         0.0470
9    C9      -30.5149   -9.9419   26.7476  C.2   1 <0>         0.0343
10   C10     -33.0941  -12.6123   24.6634  C.2   1 <0>         0.3223
11   C11     -30.9420  -12.3200   26.0071  C.3   1 <0>         0.0005
12   C12     -31.8178   -9.4561   26.2685  C.3   1 <0>         0.0374
13   C13     -24.4028  -15.2363   27.6025  C.3   1 <0>        -0.0513
14   C14     -25.0133  -16.4809   28.2896  C.3   1 <0>        -0.0374
15   C15     -25.6679  -15.1686   30.5169  C.3   1 <0>        -0.0368
16   C16     -25.3981  -14.0742   27.3609  C.3   1 <0>        -0.0462
17   C17     -26.6288  -14.2988   29.6636  C.3   1 <0>        -0.0450
18   C18     -25.0658  -16.4470   29.8453  C.3   1 <0>         0.0462
19   C19     -25.9193  -13.3535   28.6361  C.3   1 <0>        -0.0158
20   C20     -32.3995  -11.8316   25.7055  C.3   1 <0>         0.1101
21   N1      -26.1294  -18.5781   30.6629  N.1   1 <0>        -0.1963
22   N2      -29.5750   -9.2339   27.3938  N.2   1 <0>        -0.3567
23   N3      -32.4418  -10.3956   25.3055  N.4   1 <0>        -0.2984
24   O1      -32.4764  -13.5687   23.9329  O.co2 1 <0>        -0.4795
25   O2      -34.4206  -12.4473   24.4756  O.co2 1 <0>        -0.2492
26   H1      -25.6314  -10.6822   29.1603  H     1 <0>         0.0621
27   H2      -27.1392   -8.8613   28.6889  H     1 <0>         0.0638
28   H3      -28.3147  -13.3774   27.2848  H     1 <0>         0.0627
29   H4      -30.4103  -12.5883   25.0915  H     1 <0>         0.0334
30   H5      -30.9882  -13.2020   26.6504  H     1 <0>         0.0334
31   H6      -32.4623   -9.3346   27.1335  H     1 <0>         0.0488
32   H7      -31.6897   -8.4884   25.7842  H     1 <0>         0.0488
33   H8      -23.5600  -14.8670   28.1771  H     1 <0>         0.0266
34   H9      -24.0289  -15.5446   26.6220  H     1 <0>         0.0266
35   H10     -26.0120  -16.6527   27.8821  H     1 <0>         0.0278
36   H11     -24.3984  -17.3370   27.9977  H     1 <0>         0.0278
37   H12     -24.8421  -14.5370   30.8495  H     1 <0>         0.0278
38   H13     -26.1988  -15.4450   31.4340  H     1 <0>         0.0278
39   H14     -24.8950  -13.3359   26.7303  H     1 <0>         0.0271
40   H15     -26.2329  -14.4652   26.7849  H     1 <0>         0.0271
41   H16     -27.3507  -14.9422   29.1570  H     1 <0>         0.0271
42   H17     -27.1964  -13.6812   30.3657  H     1 <0>         0.0271
43   H18     -24.0375  -16.5443   30.2006  H     1 <0>         0.0454
44   H19     -25.0339  -12.9446   29.1358  H     1 <0>         0.0349
45   H20     -32.9884  -11.9467   26.6182  H     1 <0>         0.0579
46   H21     -33.4146  -10.1109   25.1612  H     1 <0>         0.1231
47   H22     -31.9286  -10.3084   24.4230  H     1 <0>         0.0000
@<TRIPOS>BOND
     1    1   18 1
     2    1   21 3
     3    2    3 ar
     4    2    6 ar
     5    3    8 ar
     6    4    5 ar
     7    4    6 ar
     8    5    7 1
     9    5    8 ar
    10    6   19 1
    11    7    9 2
    12    7   11 1
    13    8   22 1
    14    9   12 1
    15    9   22 1
    16   10   20 1
    17   10   24 1
    18   10   25 2
    19   11   20 1
    20   12   23 1
    21   13   14 1
    22   13   16 1
    23   14   18 1
    24   15   17 1
    25   15   18 1
    26   16   19 1
    27   17   19 1
    28   20   23 1
    29    2   26 1
    30    3   27 1
    31    4   28 1
    32   11   29 1
    33   11   30 1
    34   12   31 1
    35   12   32 1
    36   13   33 1
    37   13   34 1
    38   14   35 1
    39   14   36 1
    40   15   37 1
    41   15   38 1
    42   16   39 1
    43   16   40 1
    44   17   41 1
    45   17   42 1
    46   18   43 1
    47   19   44 1
    48   20   45 1
    49   23   46 1
    50   23   47 1
@<TRIPOS>PROPERTY_DATA
  Total_Score	| 6.3545
  Crash		| -4.8031
  Polar		| 3.3387

@<TRIPOS>MOLECULE
ligand_uncharged48_001
   47    50     0     0     0
SMALL
USER_CHARGES

@<TRIPOS>ATOM
1    C1      -25.6614  -17.4979   30.2124  C.1   1 <0>         0.0659
2    C2      -26.5301  -10.7712   28.5467  C.ar  1 <0>        -0.0563
3    C3      -27.4051   -9.7012   28.2722  C.ar  1 <0>        -0.0375
4    C4      -28.1041  -12.3516   27.5509  C.ar  1 <0>        -0.0489
5    C5      -28.9718  -11.2753   27.2860  C.ar  1 <0>         0.0035
6    C6      -26.8607  -12.1141   28.2049  C.ar  1 <0>        -0.0436
7    C7      -30.2221  -11.2049   26.6844  C.2   1 <0>        -0.0159
8    C8      -28.6323   -9.9764   27.6532  C.ar  1 <0>         0.0470
9    C9      -30.5971   -9.8624   26.7288  C.2   1 <0>         0.0343
10   C10     -33.1696  -12.5542   24.6818  C.2   1 <0>         0.3223
11   C11     -31.0260  -12.2544   26.0307  C.3   1 <0>         0.0005
12   C12     -31.8844   -9.3781   26.2086  C.3   1 <0>         0.0374
13   C13     -24.4814  -15.1539   27.4681  C.3   1 <0>        -0.0513
14   C14     -25.0666  -16.4082   28.1644  C.3   1 <0>        -0.0374
15   C15     -25.5919  -15.0664   30.4125  C.3   1 <0>        -0.0368
16   C16     -25.4813  -13.9936   27.2652  C.3   1 <0>        -0.0462
17   C17     -26.6006  -14.1839   29.6256  C.3   1 <0>        -0.0450
18   C18     -25.0605  -16.3691   29.7224  C.3   1 <0>         0.0462
19   C19     -25.9429  -13.2503   28.5539  C.3   1 <0>        -0.0158
20   C20     -32.4794  -11.7649   25.7133  C.3   1 <0>         0.1101
21   N1      -26.1258  -18.4618   30.6349  N.1   1 <0>        -0.1963
22   N2      -29.6338   -9.1367   27.3283  N.2   1 <0>        -0.3567
23   N3      -32.4854  -10.3459   25.2613  N.4   1 <0>        -0.2984
24   O1      -34.5137  -12.4336   24.5444  O.co2 1 <0>        -0.4795
25   O2      -32.5449  -13.5238   23.9547  O.co2 1 <0>        -0.2492
26   H1      -25.6455  -10.5657   29.0294  H     1 <0>         0.0621
27   H2      -27.1600   -8.7427   28.5319  H     1 <0>         0.0638
28   H3      -28.3917  -13.2939   27.2952  H     1 <0>         0.0627
29   H4      -30.5030  -12.5199   25.1081  H     1 <0>         0.0334
30   H5      -31.0785  -13.1385   26.6680  H     1 <0>         0.0334
31   H6      -32.5533   -9.2131   27.0529  H     1 <0>         0.0488
32   H7      -31.7370   -8.4322   25.6886  H     1 <0>         0.0488
33   H8      -23.6212  -14.7862   28.0255  H     1 <0>         0.0266
34   H9      -24.1271  -15.4608   26.4801  H     1 <0>         0.0266
35   H10     -26.0799  -16.5858   27.7857  H     1 <0>         0.0278
36   H11     -24.4551  -17.2645   27.8516  H     1 <0>         0.0278
37   H12     -24.7342  -14.4411   30.6706  H     1 <0>         0.0278
38   H13     -26.0588  -15.3119   31.3707  H     1 <0>         0.0278
39   H14     -24.9933  -13.2646   26.6111  H     1 <0>         0.0271
40   H15     -26.3484  -14.3836   26.7329  H     1 <0>         0.0271
41   H16     -27.3691  -14.8209   29.1741  H     1 <0>         0.0271
42   H17     -27.1084  -13.5461   30.3598  H     1 <0>         0.0271
43   H18     -24.0212  -16.4889   30.0335  H     1 <0>         0.0454
44   H19     -25.0368  -12.8328   29.0073  H     1 <0>         0.0349
45   H20     -33.0748  -11.8315   26.6252  H     1 <0>         0.0579
46   H21     -33.4561  -10.0714   25.0713  H     1 <0>         0.1231
47   H22     -31.9564  -10.3020   24.3859  H     1 <0>         0.0000
@<TRIPOS>BOND
     1    1   18 1
     2    1   21 3
     3    2    3 ar
     4    2    6 ar
     5    3    8 ar
     6    4    5 ar
     7    4    6 ar
     8    5    7 1
     9    5    8 ar
    10    6   19 1
    11    7    9 2
    12    7   11 1
    13    8   22 1
    14    9   12 1
    15    9   22 1
    16   10   20 1
    17   10   24 1
    18   10   25 2
    19   11   20 1
    20   12   23 1
    21   13   14 1
    22   13   16 1
    23   14   18 1
    24   15   17 1
    25   15   18 1
    26   16   19 1
    27   17   19 1
    28   20   23 1
    29    2   26 1
    30    3   27 1
    31    4   28 1
    32   11   29 1
    33   11   30 1
    34   12   31 1
    35   12   32 1
    36   13   33 1
    37   13   34 1
    38   14   35 1
    39   14   36 1
    40   15   37 1
    41   15   38 1
    42   16   39 1
    43   16   40 1
    44   17   41 1
    45   17   42 1
    46   18   43 1
    47   19   44 1
    48   20   45 1
    49   23   46 1
    50   23   47 1
@<TRIPOS>PROPERTY_DATA
  Total_Score	| 5.9775
  Crash		| -5.0135
  Polar		| 3.4785

@<TRIPOS>MOLECULE
ligand_uncharged48_002
   47    50     0     0     0
SMALL
USER_CHARGES

@<TRIPOS>ATOM
1    C1      -25.5583  -17.5761   30.4448  C.1   1 <0>         0.0659
2    C2      -26.4436  -10.9839   28.5481  C.ar  1 <0>        -0.0563
3    C3      -27.2941   -9.8863   28.3140  C.ar  1 <0>        -0.0375
4    C4      -28.0394  -12.4995   27.4884  C.ar  1 <0>        -0.0489
5    C5      -28.8848  -11.3974   27.2676  C.ar  1 <0>         0.0035
6    C6      -26.8053  -12.3041   28.1593  C.ar  1 <0>        -0.0436
7    C7      -30.1507  -11.2889   26.6981  C.2   1 <0>        -0.0159
8    C8      -28.5247  -10.1147   27.6820  C.ar  1 <0>         0.0470
9    C9      -30.5027   -9.9437   26.8063  C.2   1 <0>         0.0343
10   C10     -33.0911  -12.5404   24.6195  C.2   1 <0>         0.3223
11   C11     -30.9946  -12.3235   26.0598  C.3   1 <0>         0.0005
12   C12     -31.8111   -9.4354   26.3609  C.3   1 <0>         0.0374
13   C13     -24.4608  -15.3911   27.5454  C.3   1 <0>        -0.0513
14   C14     -24.9750  -16.5919   28.3755  C.3   1 <0>        -0.0374
15   C15     -25.6266  -15.1385   30.5344  C.3   1 <0>        -0.0368
16   C16     -25.5252  -14.2918   27.2802  C.3   1 <0>        -0.0462
17   C17     -26.6221  -14.3360   29.6511  C.3   1 <0>        -0.0450
18   C18     -24.9926  -16.4384   29.9287  C.3   1 <0>         0.0462
19   C19     -25.9382  -13.4690   28.5373  C.3   1 <0>        -0.0158
20   C20     -32.4330  -11.7973   25.7167  C.3   1 <0>         0.1101
21   N1      -26.0297  -18.5337   30.8706  N.1   1 <0>        -0.1963
22   N2      -29.5131   -9.2460   27.4010  N.2   1 <0>        -0.3567
23   N3      -32.4273  -10.3471   25.3664  N.4   1 <0>        -0.2984
24   O1      -34.4416  -12.4733   24.4697  O.co2 1 <0>        -0.4795
25   O2      -32.4313  -13.4984   23.9128  O.co2 1 <0>        -0.2492
26   H1      -25.5622  -10.8108   29.0350  H     1 <0>         0.0621
27   H2      -27.0407   -8.9448   28.6321  H     1 <0>         0.0638
28   H3      -28.3484  -13.4325   27.2086  H     1 <0>         0.0627
29   H4      -30.4734  -12.6253   25.1476  H     1 <0>         0.0334
30   H5      -31.0725  -13.1891   26.7267  H     1 <0>         0.0334
31   H6      -32.4617   -9.3374   27.2319  H     1 <0>         0.0488
32   H7      -31.6880   -8.4544   25.9015  H     1 <0>         0.0488
33   H8      -23.5857  -14.9610   28.0347  H     1 <0>         0.0266
34   H9      -24.1381  -15.7684   26.5707  H     1 <0>         0.0266
35   H10     -25.9749  -16.8480   28.0153  H     1 <0>         0.0278
36   H11     -24.3211  -17.4388   28.1484  H     1 <0>         0.0278
37   H12     -24.8190  -14.4609   30.8365  H     1 <0>         0.0278
38   H13     -26.1574  -15.3742   31.4612  H     1 <0>         0.0278
39   H14     -25.1082  -13.6063   26.5328  H     1 <0>         0.0271
40   H15     -26.4100  -14.7594   26.8375  H     1 <0>         0.0271
41   H16     -27.3542  -15.0222   29.2069  H     1 <0>         0.0271
42   H17     -27.1735  -13.6678   30.3234  H     1 <0>         0.0271
43   H18     -23.9509  -16.4754   30.2716  H     1 <0>         0.0454
44   H19     -25.0059  -13.0739   28.9601  H     1 <0>         0.0349
45   H20     -33.0667  -11.9155   26.6003  H     1 <0>         0.0579
46   H21     -33.4048  -10.0618   25.2361  H     1 <0>         0.1231
47   H22     -31.9230  -10.2419   24.4844  H     1 <0>         0.0000
@<TRIPOS>BOND
     1    1   18 1
     2    1   21 3
     3    2    3 ar
     4    2    6 ar
     5    3    8 ar
     6    4    5 ar
     7    4    6 ar
     8    5    7 1
     9    5    8 ar
    10    6   19 1
    11    7    9 2
    12    7   11 1
    13    8   22 1
    14    9   12 1
    15    9   22 1
    16   10   20 1
    17   10   24 1
    18   10   25 2
    19   11   20 1
    20   12   23 1
    21   13   14 1
    22   13   16 1
    23   14   18 1
    24   15   17 1
    25   15   18 1
    26   16   19 1
    27   17   19 1
    28   20   23 1
    29    2   26 1
    30    3   27 1
    31    4   28 1
    32   11   29 1
    33   11   30 1
    34   12   31 1
    35   12   32 1
    36   13   33 1
    37   13   34 1
    38   14   35 1
    39   14   36 1
    40   15   37 1
    41   15   38 1
    42   16   39 1
    43   16   40 1
    44   17   41 1
    45   17   42 1
    46   18   43 1
    47   19   44 1
    48   20   45 1
    49   23   46 1
    50   23   47 1
@<TRIPOS>PROPERTY_DATA
  Total_Score	| 5.8623
  Crash		| -5.0270
  Polar		| 3.4330

@<TRIPOS>MOLECULE
ligand_uncharged54_000
   48    51     0     0     0
SMALL
USER_CHARGES

@<TRIPOS>ATOM
1    C1      -29.2525  -16.0302   26.5275  C.ar  1 <0>        -0.0563
2    C2      -30.3405  -15.8287   25.6552  C.ar  1 <0>        -0.0375
3    C3      -29.1446  -13.6404   27.0061  C.ar  1 <0>        -0.0489
4    C4      -30.2277  -13.4508   26.1286  C.ar  1 <0>         0.0035
5    C5      -28.6363  -14.9493   27.2115  C.ar  1 <0>        -0.0435
6    C6      -30.9370  -12.3155   25.7651  C.2   1 <0>        -0.0159
7    C7      -30.8129  -14.5213   25.4559  C.ar  1 <0>         0.0470
8    C8      -31.9462  -12.7513   24.9080  C.2   1 <0>         0.0343
9    C9      -31.9249   -8.6202   26.0379  C.2   1 <0>         0.3223
10   C10     -30.7865  -10.9140   26.2175  C.3   1 <0>         0.0005
11   C11     -33.0021  -11.8446   24.4176  C.3   1 <0>         0.0374
12   C12     -27.8978  -16.0226   29.3684  C.3   1 <0>        -0.0317
13   C13     -26.2317  -15.7701   27.4421  C.3   1 <0>        -0.0317
14   C14     -26.6915  -16.3163   30.2905  C.3   1 <0>         0.0207
15   C15     -25.0868  -16.0903   28.4349  C.3   1 <0>         0.0207
16   C16     -27.4792  -15.1605   28.1468  C.3   1 <0>        -0.0134
17   C17     -31.7445   -9.9489   25.4405  C.3   1 <0>         0.1101
18   C18     -23.1993  -18.6826   29.5918  C.3   1 <0>         0.0707
19   N1      -31.8204  -14.0773   24.6784  N.2   1 <0>        -0.3567
20   N2      -25.5559  -16.8320   29.5746  N.pl3 1 <0>        -0.1813
21   N3      -33.0608  -10.6200   25.2602  N.4   1 <0>        -0.2984
22   O1      -32.5357   -7.6705   25.2980  O.co2 1 <0>        -0.4795
23   O2      -31.2395   -8.2233   27.1325  O.co2 1 <0>        -0.2492
24   O3      -25.2392  -18.8469   31.2496  O.2   1 <0>        -0.1583
25   O4      -23.7499  -16.8066   31.5960  O.2   1 <0>        -0.1583
26   S1      -24.4360  -17.7196   30.4816  S.o2  1 <0>         0.0290
27   H1      -28.9213  -16.9828   26.6709  H     1 <0>         0.0621
28   H2      -30.7967  -16.6181   25.2072  H     1 <0>         0.0638
29   H3      -28.7460  -12.8320   27.4816  H     1 <0>         0.0627
30   H4      -30.9850  -10.8805   27.2883  H     1 <0>         0.0334
31   H5      -29.7489  -10.6062   26.0550  H     1 <0>         0.0334
32   H6      -32.8068  -11.5801   23.3806  H     1 <0>         0.0488
33   H7      -33.9756  -12.3443   24.4787  H     1 <0>         0.0488
34   H8      -28.3161  -16.9766   29.0390  H     1 <0>         0.0284
35   H9      -28.6610  -15.4941   29.9472  H     1 <0>         0.0284
36   H10     -25.8507  -15.0734   26.6944  H     1 <0>         0.0284
37   H11     -26.5021  -16.6883   26.9233  H     1 <0>         0.0284
38   H12     -26.4031  -15.4024   30.8233  H     1 <0>         0.0444
39   H13     -27.0361  -17.0338   31.0303  H     1 <0>         0.0444
40   H14     -24.3175  -16.6415   27.8908  H     1 <0>         0.0444
41   H15     -24.6333  -15.1545   28.7717  H     1 <0>         0.0444
42   H16     -27.1547  -14.1950   28.5481  H     1 <0>         0.0350
43   H17     -31.3058   -9.7720   24.4564  H     1 <0>         0.0579
44   H18     -22.5382  -19.1706   30.3095  H     1 <0>         0.0479
45   H19     -23.6986  -19.4413   28.9967  H     1 <0>         0.0479
46   H20     -22.6079  -18.0331   28.9448  H     1 <0>         0.0479
47   H21     -33.7619   -9.9891   24.8753  H     1 <0>         0.1231
48   H22     -33.3917  -10.9012   26.1874  H     1 <0>         0.0000
@<TRIPOS>BOND
     1    1    2 ar
     2    1    5 ar
     3    2    7 ar
     4    3    4 ar
     5    3    5 ar
     6    4    6 1
     7    4    7 ar
     8    5   16 1
     9    6    8 2
    10    6   10 1
    11    7   19 1
    12    8   11 1
    13    8   19 1
    14    9   17 1
    15    9   22 1
    16    9   23 2
    17   10   17 1
    18   11   21 1
    19   12   14 1
    20   12   16 1
    21   13   15 1
    22   13   16 1
    23   14   20 1
    24   15   20 1
    25   17   21 1
    26   18   26 1
    27   20   26 1
    28   24   26 2
    29   25   26 2
    30    1   27 1
    31    2   28 1
    32    3   29 1
    33   10   30 1
    34   10   31 1
    35   11   32 1
    36   11   33 1
    37   12   34 1
    38   12   35 1
    39   13   36 1
    40   13   37 1
    41   14   38 1
    42   14   39 1
    43   15   40 1
    44   15   41 1
    45   16   42 1
    46   17   43 1
    47   18   44 1
    48   18   45 1
    49   18   46 1
    50   21   47 1
    51   21   48 1
@<TRIPOS>PROPERTY_DATA
  Total_Score	| 8.3957
  Crash		| -4.8101
  Polar		| 4.7216

@<TRIPOS>MOLECULE
ligand_uncharged54_001
   48    51     0     0     0
SMALL
USER_CHARGES

@<TRIPOS>ATOM
1    C1      -29.2125  -16.0414   26.6858  C.ar  1 <0>        -0.0563
2    C2      -30.2824  -15.8531   25.7878  C.ar  1 <0>        -0.0375
3    C3      -29.1854  -13.6557   27.2042  C.ar  1 <0>        -0.0489
4    C4      -30.2615  -13.4801   26.3185  C.ar  1 <0>         0.0035
5    C5      -28.6265  -14.9482   27.3825  C.ar  1 <0>        -0.0435
6    C6      -30.9699  -12.3642   25.9038  C.2   1 <0>        -0.0159
7    C7      -30.7701  -14.5548   25.5851  C.ar  1 <0>         0.0470
8    C8      -31.8620  -12.8054   24.9347  C.2   1 <0>         0.0343
9    C9      -31.7917   -8.6327   25.8585  C.2   1 <0>         0.3223
10   C10     -30.8794  -10.9582   26.3528  C.3   1 <0>         0.0005
11   C11     -32.7452  -11.9021   24.1899  C.3   1 <0>         0.0374
12   C12     -27.8063  -16.0123   29.4946  C.3   1 <0>        -0.0317
13   C13     -26.1948  -15.7380   27.5247  C.3   1 <0>        -0.0317
14   C14     -26.5712  -16.2753   30.3856  C.3   1 <0>         0.0207
15   C15     -25.0216  -16.0723   28.4807  C.3   1 <0>         0.0207
16   C16     -27.4305  -15.1429   28.2687  C.3   1 <0>        -0.0134
17   C17     -31.5218   -9.9778   25.3192  C.3   1 <0>         0.1101
18   C18     -23.1548  -18.7617   29.5573  C.3   1 <0>         0.0707
19   N1      -31.7000  -14.1300   24.7164  N.2   1 <0>        -0.3567
20   N2      -25.4653  -16.8121   29.6351  N.pl3 1 <0>        -0.1813
21   N3      -32.7850  -10.5229   24.7412  N.4   1 <0>        -0.2984
22   O1      -31.1083   -8.1453   26.9114  O.co2 1 <0>        -0.4795
23   O2      -32.4794   -7.7472   25.1119  O.co2 1 <0>        -0.2492
24   O3      -25.2249  -18.9171   31.1860  O.2   1 <0>        -0.1583
25   O4      -23.6691  -16.9621   31.6489  O.2   1 <0>        -0.1583
26   S1      -24.3605  -17.7828   30.4801  S.o2  1 <0>         0.0290
27   H1      -28.8543  -16.9925   26.8014  H     1 <0>         0.0621
28   H2      -30.6937  -16.6438   25.2863  H     1 <0>         0.0638
29   H3      -28.8153  -12.8496   27.7080  H     1 <0>         0.0627
30   H4      -31.3838  -10.8759   27.3166  H     1 <0>         0.0334
31   H5      -29.8331  -10.6884   26.4826  H     1 <0>         0.0334
32   H6      -32.3983  -11.8616   23.1554  H     1 <0>         0.0488
33   H7      -33.7610  -12.3067   24.2042  H     1 <0>         0.0488
34   H8      -28.2107  -16.9788   29.1797  H     1 <0>         0.0284
35   H9      -28.5674  -15.5031   30.0971  H     1 <0>         0.0284
36   H10     -25.8526  -15.0092   26.7867  H     1 <0>         0.0284
37   H11     -26.4819  -16.6483   26.9974  H     1 <0>         0.0284
38   H12     -26.2588  -15.3481   30.8771  H     1 <0>         0.0444
39   H13     -26.8779  -16.9708   31.1619  H     1 <0>         0.0444
40   H14     -24.2894  -16.6267   27.8924  H     1 <0>         0.0444
41   H15     -24.5477  -15.1399   28.7930  H     1 <0>         0.0444
42   H16     -27.1208  -14.1685   28.6626  H     1 <0>         0.0350
43   H17     -30.8266   -9.8504   24.4870  H     1 <0>         0.0579
44   H18     -22.5287  -19.3306   30.2475  H     1 <0>         0.0479
45   H19     -23.6850  -19.4521   28.9035  H     1 <0>         0.0479
46   H20     -22.5170  -18.1055   28.9675  H     1 <0>         0.0479
47   H21     -33.0813   -9.9306   23.9568  H     1 <0>         0.1231
48   H22     -33.5174  -10.4969   25.4602  H     1 <0>         0.0000
@<TRIPOS>BOND
     1    1    2 ar
     2    1    5 ar
     3    2    7 ar
     4    3    4 ar
     5    3    5 ar
     6    4    6 1
     7    4    7 ar
     8    5   16 1
     9    6    8 2
    10    6   10 1
    11    7   19 1
    12    8   11 1
    13    8   19 1
    14    9   17 1
    15    9   22 1
    16    9   23 2
    17   10   17 1
    18   11   21 1
    19   12   14 1
    20   12   16 1
    21   13   15 1
    22   13   16 1
    23   14   20 1
    24   15   20 1
    25   17   21 1
    26   18   26 1
    27   20   26 1
    28   24   26 2
    29   25   26 2
    30    1   27 1
    31    2   28 1
    32    3   29 1
    33   10   30 1
    34   10   31 1
    35   11   32 1
    36   11   33 1
    37   12   34 1
    38   12   35 1
    39   13   36 1
    40   13   37 1
    41   14   38 1
    42   14   39 1
    43   15   40 1
    44   15   41 1
    45   16   42 1
    46   17   43 1
    47   18   44 1
    48   18   45 1
    49   18   46 1
    50   21   47 1
    51   21   48 1
@<TRIPOS>PROPERTY_DATA
  Total_Score	| 8.0358
  Crash		| -5.3077
  Polar		| 4.5052

@<TRIPOS>MOLECULE
ligand_uncharged54_002
   48    51     0     0     0
SMALL
USER_CHARGES

@<TRIPOS>ATOM
1    C1      -26.9691  -11.7142   28.0850  C.ar  1 <0>        -0.0563
2    C2      -27.5635  -10.4724   27.7922  C.ar  1 <0>        -0.0375
3    C3      -28.9203  -12.8878   27.2010  C.ar  1 <0>        -0.0489
4    C4      -29.5030  -11.6431   26.9138  C.ar  1 <0>         0.0035
5    C5      -27.6174  -12.9450   27.7773  C.ar  1 <0>        -0.0435
6    C6      -30.7292  -11.3035   26.3721  C.2   1 <0>        -0.0159
7    C7      -28.8353  -10.4525   27.2025  C.ar  1 <0>         0.0470
8    C8      -30.7456   -9.9015   26.3155  C.2   1 <0>         0.0343
9    C9      -34.3505  -12.0478   25.4884  C.2   1 <0>         0.3223
10   C10     -31.8663  -12.1437   25.9323  C.3   1 <0>         0.0005
11   C11     -31.9152   -9.1488   25.8100  C.3   1 <0>         0.0374
12   C12     -25.5200  -14.4619   27.8791  C.3   1 <0>        -0.0317
13   C13     -27.4025  -14.6741   29.5764  C.3   1 <0>        -0.0317
14   C14     -25.0684  -15.8986   28.2287  C.3   1 <0>         0.0207
15   C15     -26.9066  -16.1053   29.9004  C.3   1 <0>         0.0207
16   C16     -27.0536  -14.2846   28.1127  C.3   1 <0>        -0.0134
17   C17     -33.1828  -11.3076   25.9928  C.3   1 <0>         0.1101
18   C18     -23.4472  -18.4716   29.4813  C.3   1 <0>         0.0707
19   N1      -29.6182   -9.4077   26.8587  N.2   1 <0>        -0.3567
20   N2      -25.5284  -16.3209   29.5329  N.pl3 1 <0>        -0.1813
21   N3      -32.9803  -10.0274   25.2540  N.4   1 <0>        -0.2984
22   O1      -35.4503  -12.2162   26.2569  O.co2 1 <0>        -0.4795
23   O2      -34.4187  -12.4257   24.1894  O.co2 1 <0>        -0.2492
24   O3      -25.6098  -18.5560   31.0168  O.2   1 <0>        -0.1583
25   O4      -23.8946  -16.7812   31.6285  O.2   1 <0>        -0.1583
26   S1      -24.6314  -17.4681   30.4026  S.o2  1 <0>         0.0290
27   H1      -26.0497  -11.7101   28.5301  H     1 <0>         0.0621
28   H2      -27.0790   -9.5955   28.0112  H     1 <0>         0.0638
29   H3      -29.4421  -13.7395   26.9988  H     1 <0>         0.0627
30   H4      -31.6731  -12.4767   24.9094  H     1 <0>         0.0334
31   H5      -31.9555  -13.0236   26.5714  H     1 <0>         0.0334
32   H6      -32.3260   -8.5590   26.6322  H     1 <0>         0.0488
33   H7      -31.5830   -8.4654   25.0242  H     1 <0>         0.0488
34   H8      -24.9605  -13.7698   28.5129  H     1 <0>         0.0284
35   H9      -25.2763  -14.2407   26.8343  H     1 <0>         0.0284
36   H10     -28.4867  -14.6325   29.7280  H     1 <0>         0.0284
37   H11     -26.9389  -13.9668   30.2720  H     1 <0>         0.0284
38   H12     -25.4560  -16.5920   27.4780  H     1 <0>         0.0444
39   H13     -23.9767  -15.9290   28.1690  H     1 <0>         0.0444
40   H14     -27.0525  -16.2604   30.9709  H     1 <0>         0.0444
41   H15     -27.5285  -16.8341   29.3713  H     1 <0>         0.0444
42   H16     -27.5347  -15.0227   27.4601  H     1 <0>         0.0350
43   H17     -33.3772  -11.0618   27.0395  H     1 <0>         0.0579
44   H18     -22.9353  -19.1464   30.1659  H     1 <0>         0.0479
45   H19     -23.9759  -19.0526   28.7334  H     1 <0>         0.0479
46   H20     -22.7104  -17.8295   28.9982  H     1 <0>         0.0479
47   H21     -33.8672   -9.5161   25.2323  H     1 <0>         0.1231
48   H22     -32.7241  -10.2601   24.2923  H     1 <0>         0.0000
@<TRIPOS>BOND
     1    1    2 ar
     2    1    5 ar
     3    2    7 ar
     4    3    4 ar
     5    3    5 ar
     6    4    6 1
     7    4    7 ar
     8    5   16 1
     9    6    8 2
    10    6   10 1
    11    7   19 1
    12    8   11 1
    13    8   19 1
    14    9   17 1
    15    9   22 1
    16    9   23 2
    17   10   17 1
    18   11   21 1
    19   12   14 1
    20   12   16 1
    21   13   15 1
    22   13   16 1
    23   14   20 1
    24   15   20 1
    25   17   21 1
    26   18   26 1
    27   20   26 1
    28   24   26 2
    29   25   26 2
    30    1   27 1
    31    2   28 1
    32    3   29 1
    33   10   30 1
    34   10   31 1
    35   11   32 1
    36   11   33 1
    37   12   34 1
    38   12   35 1
    39   13   36 1
    40   13   37 1
    41   14   38 1
    42   14   39 1
    43   15   40 1
    44   15   41 1
    45   16   42 1
    46   17   43 1
    47   18   44 1
    48   18   45 1
    49   18   46 1
    50   21   47 1
    51   21   48 1
@<TRIPOS>PROPERTY_DATA
  Total_Score	| 7.8777
  Crash		| -3.5976
  Polar		| 3.7253

@<TRIPOS>MOLECULE
ligand_hydrophobic3_000
   33    35     0     0     0
SMALL
USER_CHARGES

@<TRIPOS>ATOM
1    C1      -27.2114  -14.5717   28.2070  C.ar  1 <0>        -0.0566
2    C2      -28.4466  -14.8936   27.6085  C.ar  1 <0>        -0.0375
3    C3      -27.6627  -12.1823   27.9288  C.ar  1 <0>        -0.0491
4    C4      -28.8927  -12.5166   27.3374  C.ar  1 <0>         0.0035
5    C5      -29.9294  -11.7462   26.8277  C.2   1 <0>        -0.0159
6    C6      -26.8007  -13.2198   28.3675  C.ar  1 <0>        -0.0469
7    C7      -29.2766  -13.8482   27.1766  C.ar  1 <0>         0.0470
8    C8      -30.8892  -12.6449   26.3636  C.2   1 <0>         0.0343
9    C9      -31.5793   -8.4350   25.9340  C.2   1 <0>         0.3223
10   C10     -30.0603  -10.2804   26.7285  C.3   1 <0>         0.0005
11   C11     -32.1560  -12.2053   25.7517  C.3   1 <0>         0.0374
12   C12     -31.5267   -9.8388   26.4092  C.3   1 <0>         0.1101
13   C13     -24.2929  -13.3899   28.1537  C.3   1 <0>        -0.0613
14   C14     -25.4903  -12.9093   29.0013  C.3   1 <0>        -0.0305
15   N1      -30.4806  -13.9095   26.5853  N.2   1 <0>        -0.3567
16   N2      -32.1346  -10.7618   25.4059  N.4   1 <0>        -0.2984
17   O1      -32.4622   -8.0461   24.9877  O.co2 1 <0>        -0.4795
18   O2      -30.8512   -7.4767   26.5528  O.co2 1 <0>        -0.2492
19   H1      -26.6110  -15.3346   28.5246  H     1 <0>         0.0621
20   H2      -28.7354  -15.8671   27.4888  H     1 <0>         0.0638
21   H3      -27.4054  -11.1969   28.0333  H     1 <0>         0.0627
22   H4      -29.7523   -9.8414   27.6788  H     1 <0>         0.0334
23   H5      -29.3743   -9.9388   25.9473  H     1 <0>         0.0334
24   H6      -32.3223  -12.7692   24.8320  H     1 <0>         0.0488
25   H7      -32.9821  -12.4083   26.4356  H     1 <0>         0.0488
26   H8      -32.1185   -9.8856   27.3297  H     1 <0>         0.0579
27   H9      -24.3146  -14.4754   28.0395  H     1 <0>         0.0233
28   H10     -23.3594  -13.1184   28.6500  H     1 <0>         0.0233
29   H11     -24.3098  -12.9257   27.1649  H     1 <0>         0.0233
30   H12     -25.3729  -11.8345   29.1669  H     1 <0>         0.0311
31   H13     -25.4504  -13.3922   29.9801  H     1 <0>         0.0311
32   H14     -31.5976  -10.6628   24.5424  H     1 <0>         0.1231
33   H15     -33.1010  -10.4762   25.2283  H     1 <0>         0.0000
@<TRIPOS>BOND
     1    1    2 ar
     2    1    6 ar
     3    2    7 ar
     4    3    4 ar
     5    3    6 ar
     6    4    5 1
     7    4    7 ar
     8    5    8 2
     9    5   10 1
    10    6   14 1
    11    7   15 1
    12    8   11 1
    13    8   15 1
    14    9   12 1
    15    9   17 1
    16    9   18 2
    17   10   12 1
    18   11   16 1
    19   12   16 1
    20   13   14 1
    21    1   19 1
    22    2   20 1
    23    3   21 1
    24   10   22 1
    25   10   23 1
    26   11   24 1
    27   11   25 1
    28   12   26 1
    29   13   27 1
    30   13   28 1
    31   13   29 1
    32   14   30 1
    33   14   31 1
    34   16   32 1
    35   16   33 1
@<TRIPOS>PROPERTY_DATA
  Total_Score	| 9.8838
  Crash		| -0.7308
  Polar		| 6.6421

@<TRIPOS>MOLECULE
ligand_hydrophobic3_001
   33    35     0     0     0
SMALL
USER_CHARGES

@<TRIPOS>ATOM
1    C1      -27.2618  -14.6005   28.1874  C.ar  1 <0>        -0.0566
2    C2      -28.4899  -14.9029   27.5648  C.ar  1 <0>        -0.0375
3    C3      -27.6963  -12.2058   27.9568  C.ar  1 <0>        -0.0491
4    C4      -28.9255  -12.5209   27.3518  C.ar  1 <0>         0.0035
5    C5      -29.9533  -11.7362   26.8468  C.2   1 <0>        -0.0159
6    C6      -26.8450  -13.2552   28.3818  C.ar  1 <0>        -0.0469
7    C7      -29.3142  -13.8459   27.1556  C.ar  1 <0>         0.0470
8    C8      -30.9127  -12.6200   26.3492  C.2   1 <0>         0.0343
9    C9      -31.5667   -8.4092   25.9444  C.2   1 <0>         0.3223
10   C10     -30.0783  -10.2699   26.7706  C.3   1 <0>         0.0005
11   C11     -32.1672  -12.1663   25.7247  C.3   1 <0>         0.0374
12   C12     -31.5344   -9.8179   26.4098  C.3   1 <0>         0.1101
13   C13     -24.3339  -13.4792   28.2001  C.3   1 <0>        -0.0613
14   C14     -25.5352  -12.9656   29.0252  C.3   1 <0>        -0.0305
15   N1      -30.5129  -13.8863   26.5505  N.2   1 <0>        -0.3567
16   N2      -32.1164  -10.7240   25.3750  N.4   1 <0>        -0.2984
17   O1      -30.8533   -7.4562   26.5904  O.co2 1 <0>        -0.4795
18   O2      -32.4305   -8.0147   24.9755  O.co2 1 <0>        -0.2492
19   H1      -26.6670  -15.3737   28.4934  H     1 <0>         0.0621
20   H2      -28.7772  -15.8741   27.4215  H     1 <0>         0.0638
21   H3      -27.4406  -11.2258   28.0939  H     1 <0>         0.0627
22   H4      -29.8015   -9.8370   27.7354  H     1 <0>         0.0334
23   H5      -29.3727   -9.9119   26.0140  H     1 <0>         0.0334
24   H6      -32.3337  -12.7310   24.8059  H     1 <0>         0.0488
25   H7      -32.9989  -12.3532   26.4069  H     1 <0>         0.0488
26   H8      -32.1591   -9.8746   27.3100  H     1 <0>         0.0579
27   H9      -24.3449  -14.5673   28.1404  H     1 <0>         0.0233
28   H10     -23.4016  -13.1761   28.6749  H     1 <0>         0.0233
29   H11     -24.3588  -13.0680   27.1901  H     1 <0>         0.0233
30   H12     -25.4008  -11.8921   29.1780  H     1 <0>         0.0311
31   H13     -25.5156  -13.4340   30.0103  H     1 <0>         0.0311
32   H14     -31.5450  -10.6284   24.5319  H     1 <0>         0.1231
33   H15     -33.0719  -10.4185   25.1576  H     1 <0>         0.0000
@<TRIPOS>BOND
     1    1    2 ar
     2    1    6 ar
     3    2    7 ar
     4    3    4 ar
     5    3    6 ar
     6    4    5 1
     7    4    7 ar
     8    5    8 2
     9    5   10 1
    10    6   14 1
    11    7   15 1
    12    8   11 1
    13    8   15 1
    14    9   12 1
    15    9   17 1
    16    9   18 2
    17   10   12 1
    18   11   16 1
    19   12   16 1
    20   13   14 1
    21    1   19 1
    22    2   20 1
    23    3   21 1
    24   10   22 1
    25   10   23 1
    26   11   24 1
    27   11   25 1
    28   12   26 1
    29   13   27 1
    30   13   28 1
    31   13   29 1
    32   14   30 1
    33   14   31 1
    34   16   32 1
    35   16   33 1
@<TRIPOS>PROPERTY_DATA
  Total_Score	| 9.7075
  Crash		| -0.6957
  Polar		| 6.6669

@<TRIPOS>MOLECULE
ligand_hydrophobic3_002
   33    35     0     0     0
SMALL
USER_CHARGES

@<TRIPOS>ATOM
1    C1      -27.2049  -14.7722   27.4187  C.ar  1 <0>        -0.0566
2    C2      -28.5346  -15.0125   27.0143  C.ar  1 <0>        -0.0375
3    C3      -27.5552  -12.3546   27.2654  C.ar  1 <0>        -0.0491
4    C4      -28.8831  -12.6056   26.8738  C.ar  1 <0>         0.0035
5    C5      -29.9411  -11.7669   26.5459  C.2   1 <0>        -0.0159
6    C6      -26.6994  -13.4488   27.5392  C.ar  1 <0>        -0.0469
7    C7      -29.3599  -13.9101   26.7476  C.ar  1 <0>         0.0470
8    C8      -31.0098  -12.6020   26.2178  C.2   1 <0>         0.0343
9    C9      -31.5524   -8.3759   25.9322  C.2   1 <0>         0.3223
10   C10     -30.0083  -10.2900   26.4775  C.3   1 <0>         0.0005
11   C11     -32.3278  -12.0897   25.7961  C.3   1 <0>         0.0374
12   C12     -31.4872   -9.7877   26.3686  C.3   1 <0>         0.1101
13   C13     -25.1264  -13.3423   29.4923  C.3   1 <0>        -0.0613
14   C14     -25.2945  -13.2230   27.9631  C.3   1 <0>        -0.0305
15   N1      -30.6411  -13.8881   26.3507  N.2   1 <0>        -0.3567
16   N2      -32.2593  -10.6533   25.4321  N.4   1 <0>        -0.2984
17   O1      -30.8044   -7.4412   26.5622  O.co2 1 <0>        -0.4795
18   O2      -32.3804   -7.9839   24.9333  O.co2 1 <0>        -0.2492
19   H1      -26.5934  -15.5750   27.5899  H     1 <0>         0.0621
20   H2      -28.8895  -15.9672   26.9059  H     1 <0>         0.0638
21   H3      -27.2345  -11.3890   27.3653  H     1 <0>         0.0627
22   H4      -29.5539   -9.8789   27.3831  H     1 <0>         0.0334
23   H5      -29.4204   -9.9655   25.6141  H     1 <0>         0.0334
24   H6      -32.6792  -12.6472   24.9238  H     1 <0>         0.0488
25   H7      -33.0514  -12.2284   26.6040  H     1 <0>         0.0488
26   H8      -31.9544   -9.8405   27.3585  H     1 <0>         0.0579
27   H9      -25.6914  -12.5512   29.9886  H     1 <0>         0.0233
28   H10     -24.0724  -13.2371   29.7562  H     1 <0>         0.0233
29   H11     -25.4765  -14.3102   29.8526  H     1 <0>         0.0233
30   H12     -24.6429  -13.9472   27.4697  H     1 <0>         0.0311
31   H13     -24.9487  -12.2309   27.6566  H     1 <0>         0.0311
32   H14     -31.8019  -10.5859   24.5191  H     1 <0>         0.1231
33   H15     -33.2175  -10.2977   25.3520  H     1 <0>         0.0000
@<TRIPOS>BOND
     1    1    2 ar
     2    1    6 ar
     3    2    7 ar
     4    3    4 ar
     5    3    6 ar
     6    4    5 1
     7    4    7 ar
     8    5    8 2
     9    5   10 1
    10    6   14 1
    11    7   15 1
    12    8   11 1
    13    8   15 1
    14    9   12 1
    15    9   17 1
    16    9   18 2
    17   10   12 1
    18   11   16 1
    19   12   16 1
    20   13   14 1
    21    1   19 1
    22    2   20 1
    23    3   21 1
    24   10   22 1
    25   10   23 1
    26   11   24 1
    27   11   25 1
    28   12   26 1
    29   13   27 1
    30   13   28 1
    31   13   29 1
    32   14   30 1
    33   14   31 1
    34   16   32 1
    35   16   33 1
@<TRIPOS>PROPERTY_DATA
  Total_Score	| 9.2585
  Crash		| -1.0327
  Polar		| 6.5055

@<TRIPOS>MOLECULE
ligand_negative7_000
   39    42     0     0     0
SMALL
USER_CHARGES

@<TRIPOS>ATOM
1    C1      -26.2275  -16.4012   30.5648  C.ar  1 <0>        -0.0611
2    C2      -25.2817  -15.4018   30.8050  C.ar  1 <0>        -0.0609
3    C3      -27.1980  -16.2127   29.5728  C.ar  1 <0>        -0.0532
4    C4      -28.6678  -16.0835   27.0144  C.ar  1 <0>        -0.0520
5    C5      -25.2636  -14.2515   30.0013  C.ar  1 <0>        -0.0472
6    C6      -29.7204  -16.0121   26.0797  C.ar  1 <0>        -0.0372
7    C7      -29.0021  -13.7453   27.6349  C.ar  1 <0>        -0.0446
8    C8      -29.9863  -13.6608   26.6317  C.ar  1 <0>         0.0038
9    C9      -28.2765  -14.9556   27.7922  C.ar  1 <0>        -0.0164
10   C10     -27.2089  -15.0535   28.7471  C.ar  1 <0>        -0.0039
11   C11     -26.1812  -14.0636   28.9317  C.ar  1 <0>         0.0665
12   C12     -30.7338  -12.5945   26.1489  C.2   1 <0>        -0.0158
13   C13     -30.3516  -14.7767   25.8778  C.ar  1 <0>         0.0470
14   C14     -31.5489  -13.1233   25.1523  C.2   1 <0>         0.0343
15   C15     -25.9564  -12.9267   28.0911  C.2   1 <0>         0.3374
16   C16     -31.7472   -8.9077   25.9214  C.2   1 <0>         0.3223
17   C17     -30.6695  -11.1564   26.4918  C.3   1 <0>         0.0005
18   C18     -32.5036  -12.2972   24.3978  C.3   1 <0>         0.0374
19   C19     -31.4364  -10.2759   25.4476  C.3   1 <0>         0.1101
20   N1      -31.2831  -14.4317   24.9732  N.2   1 <0>        -0.3567
21   N2      -32.6884  -10.9511   25.0016  N.4   1 <0>        -0.2984
22   O1      -24.8512  -12.1539   28.2017  O.co2 1 <0>        -0.4771
23   O2      -32.3736   -8.0416   25.0905  O.co2 1 <0>        -0.4795
24   O3      -26.6903  -12.6942   26.9749  O.co2 1 <0>        -0.2451
25   O4      -31.2001   -8.4007   27.0499  O.co2 1 <0>        -0.2492
26   H1      -26.2187  -17.2586   31.1184  H     1 <0>         0.0618
27   H2      -24.5977  -15.5153   31.5568  H     1 <0>         0.0618
28   H3      -27.9078  -16.9441   29.4727  H     1 <0>         0.0624
29   H4      -28.1648  -16.9688   27.0980  H     1 <0>         0.0624
30   H5      -24.5397  -13.5615   30.2048  H     1 <0>         0.0626
31   H6      -29.9951  -16.8329   25.5384  H     1 <0>         0.0638
32   H7      -28.7952  -12.9253   28.2066  H     1 <0>         0.0630
33   H8      -31.0908  -11.0342   27.4881  H     1 <0>         0.0334
34   H9      -29.6232  -10.8392   26.5189  H     1 <0>         0.0334
35   H10     -32.1507  -12.1966   23.3690  H     1 <0>         0.0488
36   H11     -33.4763  -12.7950   24.3847  H     1 <0>         0.0488
37   H12     -30.7915  -10.1548   24.5738  H     1 <0>         0.0579
38   H13     -33.1636  -10.3770   24.3023  H     1 <0>         0.1231
39   H14     -33.3028  -11.0465   25.8148  H     1 <0>         0.0000
@<TRIPOS>BOND
     1    1    2 ar
     2    1    3 ar
     3    2    5 ar
     4    3   10 ar
     5    4    6 ar
     6    4    9 ar
     7    5   11 ar
     8    6   13 ar
     9    7    8 ar
    10    7    9 ar
    11    8   12 1
    12    8   13 ar
    13    9   10 1
    14   10   11 ar
    15   11   15 1
    16   12   14 2
    17   12   17 1
    18   13   20 1
    19   14   18 1
    20   14   20 1
    21   15   22 1
    22   15   24 2
    23   16   19 1
    24   16   23 1
    25   16   25 2
    26   17   19 1
    27   18   21 1
    28   19   21 1
    29    1   26 1
    30    2   27 1
    31    3   28 1
    32    4   29 1
    33    5   30 1
    34    6   31 1
    35    7   32 1
    36   17   33 1
    37   17   34 1
    38   18   35 1
    39   18   36 1
    40   19   37 1
    41   21   38 1
    42   21   39 1
@<TRIPOS>PROPERTY_DATA
  Total_Score	| 8.3567
  Crash		| -2.5252
  Polar		| 5.3625

@<TRIPOS>MOLECULE
ligand_negative7_001
   39    42     0     0     0
SMALL
USER_CHARGES

@<TRIPOS>ATOM
1    C1      -26.1919  -16.3943   30.5823  C.ar  1 <0>        -0.0611
2    C2      -25.2402  -15.3964   30.8224  C.ar  1 <0>        -0.0609
3    C3      -27.1754  -16.2054   29.5974  C.ar  1 <0>        -0.0532
4    C4      -28.6450  -16.0653   27.0374  C.ar  1 <0>        -0.0520
5    C5      -25.2267  -14.2435   30.0179  C.ar  1 <0>        -0.0472
6    C6      -29.6878  -15.9850   26.0893  C.ar  1 <0>        -0.0372
7    C7      -28.9671  -13.7225   27.6520  C.ar  1 <0>        -0.0446
8    C8      -29.9641  -13.6394   26.6563  C.ar  1 <0>         0.0038
9    C9      -28.2578  -14.9403   27.8226  C.ar  1 <0>        -0.0164
10   C10     -27.1834  -15.0422   28.7746  C.ar  1 <0>        -0.0039
11   C11     -26.1493  -14.0629   28.9498  C.ar  1 <0>         0.0665
12   C12     -30.7210  -12.5769   26.1709  C.2   1 <0>        -0.0158
13   C13     -30.3356  -14.7564   25.9063  C.ar  1 <0>         0.0470
14   C14     -31.5369  -13.1076   25.1741  C.2   1 <0>         0.0343
15   C15     -25.9416  -12.9474   28.0753  C.2   1 <0>         0.3374
16   C16     -31.7467   -8.8952   25.9230  C.2   1 <0>         0.3223
17   C17     -30.6604  -11.1365   26.5018  C.3   1 <0>         0.0005
18   C18     -32.4940  -12.2913   24.4101  C.3   1 <0>         0.0374
19   C19     -31.4337  -10.2634   25.4538  C.3   1 <0>         0.1101
20   N1      -31.2667  -14.4173   24.9991  N.2   1 <0>        -0.3567
21   N2      -32.6840  -10.9492   25.0177  N.4   1 <0>        -0.2984
22   O1      -26.6455  -12.8157   26.9252  O.co2 1 <0>        -0.4771
23   O2      -32.3837   -8.0371   25.0941  O.co2 1 <0>        -0.4795
24   O3      -24.8489  -12.1488   28.1893  O.co2 1 <0>        -0.2451
25   O4      -31.1869   -8.3794   27.0428  O.co2 1 <0>        -0.2492
26   H1      -26.1837  -17.2573   31.1263  H     1 <0>         0.0618
27   H2      -24.5463  -15.5202   31.5645  H     1 <0>         0.0618
28   H3      -27.8941  -16.9308   29.4983  H     1 <0>         0.0624
29   H4      -28.1478  -16.9548   27.1193  H     1 <0>         0.0624
30   H5      -24.4956  -13.5554   30.2120  H     1 <0>         0.0626
31   H6      -29.9731  -16.8044   25.5579  H     1 <0>         0.0638
32   H7      -28.7544  -12.9034   28.2177  H     1 <0>         0.0630
33   H8      -31.0785  -11.0067   27.4986  H     1 <0>         0.0334
34   H9      -29.6146  -10.8207   26.5197  H     1 <0>         0.0334
35   H10     -32.1294  -12.1897   23.3870  H     1 <0>         0.0488
36   H11     -33.4631  -12.7917   24.3869  H     1 <0>         0.0488
37   H12     -30.7906  -10.1456   24.5778  H     1 <0>         0.0579
38   H13     -33.1772  -10.3761   24.3259  H     1 <0>         0.1231
39   H14     -33.2869  -11.0563   25.8373  H     1 <0>         0.0000
@<TRIPOS>BOND
     1    1    2 ar
     2    1    3 ar
     3    2    5 ar
     4    3   10 ar
     5    4    6 ar
     6    4    9 ar
     7    5   11 ar
     8    6   13 ar
     9    7    8 ar
    10    7    9 ar
    11    8   12 1
    12    8   13 ar
    13    9   10 1
    14   10   11 ar
    15   11   15 1
    16   12   14 2
    17   12   17 1
    18   13   20 1
    19   14   18 1
    20   14   20 1
    21   15   22 1
    22   15   24 2
    23   16   19 1
    24   16   23 1
    25   16   25 2
    26   17   19 1
    27   18   21 1
    28   19   21 1
    29    1   26 1
    30    2   27 1
    31    3   28 1
    32    4   29 1
    33    5   30 1
    34    6   31 1
    35    7   32 1
    36   17   33 1
    37   17   34 1
    38   18   35 1
    39   18   36 1
    40   19   37 1
    41   21   38 1
    42   21   39 1
@<TRIPOS>PROPERTY_DATA
  Total_Score	| 8.2849
  Crash		| -2.4887
  Polar		| 5.3701

@<TRIPOS>MOLECULE
ligand_negative7_002
   39    42     0     0     0
SMALL
USER_CHARGES

@<TRIPOS>ATOM
1    C1      -26.0030  -16.5028   30.5425  C.ar  1 <0>        -0.0611
2    C2      -25.0241  -15.5339   30.8137  C.ar  1 <0>        -0.0609
3    C3      -27.0420  -16.2155   29.6483  C.ar  1 <0>        -0.0532
4    C4      -28.4430  -15.9630   27.1095  C.ar  1 <0>        -0.0520
5    C5      -25.0715  -14.2972   30.1453  C.ar  1 <0>        -0.0472
6    C6      -29.4815  -15.9076   26.1567  C.ar  1 <0>        -0.0372
7    C7      -28.8817  -13.6560   27.7753  C.ar  1 <0>        -0.0446
8    C8      -29.8666  -13.5859   26.7685  C.ar  1 <0>         0.0038
9    C9      -28.1246  -14.8483   27.9432  C.ar  1 <0>        -0.0164
10   C10     -27.1027  -14.9790   28.9426  C.ar  1 <0>        -0.0039
11   C11     -26.0807  -14.0039   29.1948  C.ar  1 <0>         0.0665
12   C12     -30.6733  -12.5504   26.3113  C.2   1 <0>        -0.0158
13   C13     -30.1766  -14.7033   25.9905  C.ar  1 <0>         0.0470
14   C14     -31.4816  -13.1129   25.3227  C.2   1 <0>         0.0343
15   C15     -25.9556  -12.7674   28.4971  C.2   1 <0>         0.3374
16   C16     -31.7320   -8.8752   25.9484  C.2   1 <0>         0.3223
17   C17     -30.6787  -11.1048   26.6514  C.3   1 <0>         0.0005
18   C18     -32.4691  -12.3287   24.5665  C.3   1 <0>         0.0374
19   C19     -31.4219  -10.2701   25.5575  C.3   1 <0>         0.1101
20   N1      -31.1559  -14.4010   25.1163  N.2   1 <0>        -0.3567
21   N2      -32.6704  -10.9694   25.1339  N.4   1 <0>        -0.2984
22   O1      -26.8332  -11.7720   28.7793  O.co2 1 <0>        -0.4771
23   O2      -31.1328   -8.2970   27.0151  O.co2 1 <0>        -0.4795
24   O3      -24.7271  -12.3249   28.1303  O.co2 1 <0>        -0.2451
25   O4      -32.3356   -8.0574   25.0534  O.co2 1 <0>        -0.2492
26   H1      -25.9432  -17.4259   30.9890  H     1 <0>         0.0618
27   H2      -24.2693  -15.7408   31.4781  H     1 <0>         0.0618
28   H3      -27.7444  -16.9440   29.5034  H     1 <0>         0.0624
29   H4      -27.9123  -16.8371   27.1879  H     1 <0>         0.0624
30   H5      -24.3322  -13.6224   30.3493  H     1 <0>         0.0626
31   H6      -29.6986  -16.7278   25.5847  H     1 <0>         0.0638
32   H7      -28.7464  -12.8453   28.3964  H     1 <0>         0.0630
33   H8      -31.1532  -10.9727   27.6248  H     1 <0>         0.0334
34   H9      -29.6467  -10.7522   26.7252  H     1 <0>         0.0334
35   H10     -32.1390  -12.2496   23.5296  H     1 <0>         0.0488
36   H11     -33.4253  -12.8524   24.5862  H     1 <0>         0.0488
37   H12     -30.7634  -10.1966   24.6876  H     1 <0>         0.0579
38   H13     -33.1570  -10.4196   24.4207  H     1 <0>         0.1231
39   H14     -33.2815  -11.0521   25.9505  H     1 <0>         0.0000
@<TRIPOS>BOND
     1    1    2 ar
     2    1    3 ar
     3    2    5 ar
     4    3   10 ar
     5    4    6 ar
     6    4    9 ar
     7    5   11 ar
     8    6   13 ar
     9    7    8 ar
    10    7    9 ar
    11    8   12 1
    12    8   13 ar
    13    9   10 1
    14   10   11 ar
    15   11   15 1
    16   12   14 2
    17   12   17 1
    18   13   20 1
    19   14   18 1
    20   14   20 1
    21   15   22 1
    22   15   24 2
    23   16   19 1
    24   16   23 1
    25   16   25 2
    26   17   19 1
    27   18   21 1
    28   19   21 1
    29    1   26 1
    30    2   27 1
    31    3   28 1
    32    4   29 1
    33    5   30 1
    34    6   31 1
    35    7   32 1
    36   17   33 1
    37   17   34 1
    38   18   35 1
    39   18   36 1
    40   19   37 1
    41   21   38 1
    42   21   39 1
@<TRIPOS>PROPERTY_DATA
  Total_Score	| 8.2461
  Crash		| -2.3227
  Polar		| 5.2594

@<TRIPOS>MOLECULE
ligand_uncharged6_000
   37    39     0     0     0
SMALL
USER_CHARGES

@<TRIPOS>ATOM
1    C1      -28.2870  -15.9348   27.2912  C.ar  1 <0>        -0.0565
2    C2      -29.2943  -15.9237   26.3047  C.ar  1 <0>        -0.0375
3    C3      -28.6812  -13.5709   27.7718  C.ar  1 <0>        -0.0491
4    C4      -29.6368  -13.5555   26.7543  C.ar  1 <0>         0.0035
5    C5      -30.4202  -12.5343   26.2112  C.2   1 <0>        -0.0159
6    C6      -27.9996  -14.7870   28.0757  C.ar  1 <0>        -0.0442
7    C7      -29.9565  -14.7114   26.0368  C.ar  1 <0>         0.0470
8    C8      -31.2130  -13.1366   25.2354  C.2   1 <0>         0.0343
9    C9      -31.7375   -8.9374   25.9474  C.2   1 <0>         0.3223
10   C10     -30.4850  -11.0951   26.5519  C.3   1 <0>         0.0005
11   C11     -32.2125  -12.3917   24.4524  C.3   1 <0>         0.0374
12   C12     -31.3017  -10.2782   25.4910  C.3   1 <0>         0.1101
13   C13     -25.7329  -16.9220   30.0547  C.3   1 <0>        -0.0386
14   C14     -26.9656  -14.8206   29.1536  C.3   1 <0>        -0.0018
15   C15     -27.0008  -16.0373   30.1482  C.3   1 <0>         0.0564
16   N1      -30.8959  -14.4438   25.1188  N.2   1 <0>        -0.3567
17   N2      -32.4906  -11.0487   25.0272  N.4   1 <0>        -0.2984
18   O1      -32.3917   -8.1144   25.0908  O.co2 1 <0>        -0.4795
19   O2      -31.2721   -8.3943   27.0953  O.co2 1 <0>        -0.2492
20   O3      -28.1383  -16.8888   29.9855  O.3   1 <0>        -0.3917
21   H1      -27.7672  -16.8020   27.4328  H     1 <0>         0.0621
22   H2      -29.5183  -16.7734   25.7823  H     1 <0>         0.0638
23   H3      -28.4568  -12.7102   28.2738  H     1 <0>         0.0627
24   H4      -30.9380  -11.0035   27.5422  H     1 <0>         0.0334
25   H5      -29.4705  -10.6889   26.6044  H     1 <0>         0.0334
26   H6      -31.8581  -12.2958   23.4272  H     1 <0>         0.0488
27   H7      -33.1522  -12.9460   24.4333  H     1 <0>         0.0488
28   H8      -30.6498  -10.1024   24.6305  H     1 <0>         0.0579
29   H9      -25.5964  -17.2644   29.0273  H     1 <0>         0.0255
30   H10     -24.8486  -16.3583   30.3609  H     1 <0>         0.0255
31   H11     -25.8294  -17.7945   30.7039  H     1 <0>         0.0255
32   H12     -25.9947  -14.7785   28.6514  H     1 <0>         0.0338
33   H13     -27.0329  -13.9076   29.7575  H     1 <0>         0.0338
34   H14     -27.0492  -15.6549   31.1739  H     1 <0>         0.0594
35   H15     -32.9883  -10.5103   24.3126  H     1 <0>         0.1231
36   H16     -33.1149  -11.1750   25.8272  H     1 <0>         0.0000
37   H17     -28.9225  -16.3052   30.0701  H     1 <0>         0.2098
@<TRIPOS>BOND
     1    1    2 ar
     2    1    6 ar
     3    2    7 ar
     4    3    4 ar
     5    3    6 ar
     6    4    5 1
     7    4    7 ar
     8    5    8 2
     9    5   10 1
    10    6   14 1
    11    7   16 1
    12    8   11 1
    13    8   16 1
    14    9   12 1
    15    9   18 1
    16    9   19 2
    17   10   12 1
    18   11   17 1
    19   12   17 1
    20   13   15 1
    21   14   15 1
    22   15   20 1
    23    1   21 1
    24    2   22 1
    25    3   23 1
    26   10   24 1
    27   10   25 1
    28   11   26 1
    29   11   27 1
    30   12   28 1
    31   13   29 1
    32   13   30 1
    33   13   31 1
    34   14   32 1
    35   14   33 1
    36   15   34 1
    37   17   35 1
    38   17   36 1
    39   20   37 1
@<TRIPOS>PROPERTY_DATA
  Total_Score	| 8.0547
  Crash		| -1.4315
  Polar		| 5.0206

@<TRIPOS>MOLECULE
ligand_uncharged6_001
   37    39     0     0     0
SMALL
USER_CHARGES

@<TRIPOS>ATOM
1    C1      -26.1351  -10.8606   28.2148  C.ar  1 <0>        -0.0565
2    C2      -27.1604   -9.8979   28.2855  C.ar  1 <0>        -0.0375
3    C3      -27.6141  -12.3928   27.0109  C.ar  1 <0>        -0.0491
4    C4      -28.6293  -11.4227   27.0858  C.ar  1 <0>         0.0035
5    C5      -29.9359  -11.3909   26.6108  C.2   1 <0>        -0.0159
6    C6      -26.3408  -12.1110   27.5705  C.ar  1 <0>        -0.0442
7    C7      -28.4043  -10.1923   27.7035  C.ar  1 <0>         0.0470
8    C8      -30.4286  -10.1243   26.9305  C.2   1 <0>         0.0343
9    C9      -32.9199  -12.6949   24.5957  C.2   1 <0>         0.3223
10   C10     -30.7005  -12.3903   25.8338  C.3   1 <0>         0.0005
11   C11     -31.7657   -9.6630   26.5197  C.3   1 <0>         0.0374
12   C12     -32.2040  -11.9783   25.6712  C.3   1 <0>         0.1101
13   C13     -25.4567  -14.1953   29.7652  C.3   1 <0>        -0.0386
14   C14     -25.2273  -13.0895   27.4316  C.3   1 <0>        -0.0018
15   C15     -25.4178  -14.4074   28.2307  C.3   1 <0>         0.0564
16   N1      -29.5008   -9.4215   27.6021  N.2   1 <0>        -0.3567
17   N2      -32.3172  -10.5115   25.4323  N.4   1 <0>        -0.2984
18   O1      -32.3275  -13.6454   23.8361  O.co2 1 <0>        -0.4795
19   O2      -34.2455  -12.4819   24.4337  O.co2 1 <0>        -0.2492
20   O3      -24.3332  -15.2789   27.8987  O.3   1 <0>        -0.3917
21   H1      -25.2236  -10.6360   28.6253  H     1 <0>         0.0621
22   H2      -26.9955   -8.9934   28.7313  H     1 <0>         0.0638
23   H3      -27.7918  -13.2739   26.5257  H     1 <0>         0.0627
24   H4      -30.2165  -12.4790   24.8588  H     1 <0>         0.0334
25   H5      -30.6439  -13.3563   26.3420  H     1 <0>         0.0334
26   H6      -32.4275   -9.6862   27.3855  H     1 <0>         0.0488
27   H7      -31.7008   -8.6360   26.1546  H     1 <0>         0.0488
28   H8      -32.7259  -12.2155   26.6014  H     1 <0>         0.0579
29   H9      -24.5508  -13.6912   30.1075  H     1 <0>         0.0255
30   H10     -26.3236  -13.5889   30.0429  H     1 <0>         0.0255
31   H11     -25.5310  -15.1597   30.2737  H     1 <0>         0.0255
32   H12     -25.1248  -13.3355   26.3707  H     1 <0>         0.0338
33   H13     -24.2771  -12.6449   27.7385  H     1 <0>         0.0338
34   H14     -26.3444  -14.8946   27.9196  H     1 <0>         0.0594
35   H15     -33.3043  -10.2655   25.2922  H     1 <0>         0.1231
36   H16     -31.7981  -10.3011   24.5741  H     1 <0>         0.0000
37   H17     -24.5105  -16.1140   28.3834  H     1 <0>         0.2098
@<TRIPOS>BOND
     1    1    2 ar
     2    1    6 ar
     3    2    7 ar
     4    3    4 ar
     5    3    6 ar
     6    4    5 1
     7    4    7 ar
     8    5    8 2
     9    5   10 1
    10    6   14 1
    11    7   16 1
    12    8   11 1
    13    8   16 1
    14    9   12 1
    15    9   18 1
    16    9   19 2
    17   10   12 1
    18   11   17 1
    19   12   17 1
    20   13   15 1
    21   14   15 1
    22   15   20 1
    23    1   21 1
    24    2   22 1
    25    3   23 1
    26   10   24 1
    27   10   25 1
    28   11   26 1
    29   11   27 1
    30   12   28 1
    31   13   29 1
    32   13   30 1
    33   13   31 1
    34   14   32 1
    35   14   33 1
    36   15   34 1
    37   17   35 1
    38   17   36 1
    39   20   37 1
@<TRIPOS>PROPERTY_DATA
  Total_Score	| 7.9692
  Crash		| -1.4102
  Polar		| 3.5571

@<TRIPOS>MOLECULE
ligand_uncharged6_002
   37    39     0     0     0
SMALL
USER_CHARGES

@<TRIPOS>ATOM
1    C1      -28.6341  -15.8047   27.8748  C.ar  1 <0>        -0.0565
2    C2      -29.4853  -15.8049   26.7512  C.ar  1 <0>        -0.0375
3    C3      -28.8652  -13.3810   28.0939  C.ar  1 <0>        -0.0491
4    C4      -29.7535  -13.3976   26.9999  C.ar  1 <0>         0.0035
5    C5      -30.5029  -12.4124   26.3680  C.2   1 <0>        -0.0159
6    C6      -28.2858  -14.5983   28.5402  C.ar  1 <0>        -0.0442
7    C7      -30.0404  -14.5883   26.3298  C.ar  1 <0>         0.0470
8    C8      -31.2143  -13.0533   25.3512  C.2   1 <0>         0.0343
9    C9      -31.7307   -8.8321   25.8240  C.2   1 <0>         0.3223
10   C10     -30.6301  -10.9690   26.6609  C.3   1 <0>         0.0005
11   C11     -32.1655  -12.3498   24.4689  C.3   1 <0>         0.0374
12   C12     -31.3023  -10.2026   25.4744  C.3   1 <0>         0.1101
13   C13     -25.5366  -16.2493   30.5933  C.3   1 <0>        -0.0386
14   C14     -27.3866  -14.6461   29.7300  C.3   1 <0>        -0.0018
15   C15     -25.9752  -15.2818   29.4664  C.3   1 <0>         0.0564
16   N1      -30.8984  -14.3621   25.3201  N.2   1 <0>        -0.3567
17   N2      -32.4635  -10.9728   24.9395  N.4   1 <0>        -0.2984
18   O1      -31.1423   -8.1665   26.8458  O.co2 1 <0>        -0.4795
19   O2      -32.3848   -8.0905   24.8989  O.co2 1 <0>        -0.2492
20   O3      -24.9824  -14.2683   29.2930  O.3   1 <0>        -0.3917
21   H1      -28.2634  -16.7000   28.2033  H     1 <0>         0.0621
22   H2      -29.7074  -16.6761   26.2626  H     1 <0>         0.0638
23   H3      -28.6627  -12.4997   28.5686  H     1 <0>         0.0627
24   H4      -31.2281  -10.8573   27.5681  H     1 <0>         0.0334
25   H5      -29.6391  -10.5465   26.8465  H     1 <0>         0.0334
26   H6      -31.7576  -12.3144   23.4572  H     1 <0>         0.0488
27   H7      -33.1080  -12.9016   24.4326  H     1 <0>         0.0488
28   H8      -30.5623  -10.1017   24.6770  H     1 <0>         0.0579
29   H9      -25.4467  -15.7120   31.5388  H     1 <0>         0.0255
30   H10     -26.2726  -17.0486   30.7026  H     1 <0>         0.0255
31   H11     -24.5738  -16.7028   30.3510  H     1 <0>         0.0255
32   H12     -27.2417  -13.6439   30.1456  H     1 <0>         0.0338
33   H13     -27.9257  -15.2114   30.4960  H     1 <0>         0.0338
34   H14     -25.9767  -15.8618   28.5403  H     1 <0>         0.0594
35   H15     -32.8701  -10.4665   24.1474  H     1 <0>         0.1231
36   H16     -33.1686  -11.0361   25.6794  H     1 <0>         0.0000
37   H17     -24.8856  -13.8325   30.1660  H     1 <0>         0.2098
@<TRIPOS>BOND
     1    1    2 ar
     2    1    6 ar
     3    2    7 ar
     4    3    4 ar
     5    3    6 ar
     6    4    5 1
     7    4    7 ar
     8    5    8 2
     9    5   10 1
    10    6   14 1
    11    7   16 1
    12    8   11 1
    13    8   16 1
    14    9   12 1
    15    9   18 1
    16    9   19 2
    17   10   12 1
    18   11   17 1
    19   12   17 1
    20   13   15 1
    21   14   15 1
    22   15   20 1
    23    1   21 1
    24    2   22 1
    25    3   23 1
    26   10   24 1
    27   10   25 1
    28   11   26 1
    29   11   27 1
    30   12   28 1
    31   13   29 1
    32   13   30 1
    33   13   31 1
    34   14   32 1
    35   14   33 1
    36   15   34 1
    37   17   35 1
    38   17   36 1
    39   20   37 1
@<TRIPOS>PROPERTY_DATA
  Total_Score	| 7.8880
  Crash		| -1.2647
  Polar		| 4.0783

@<TRIPOS>MOLECULE
ligand_uncharged9_000
   32    34     0     0     0
SMALL
USER_CHARGES

@<TRIPOS>ATOM
1    C1      -26.0451  -15.1459   30.1046  C.1   1 <0>         0.0856
2    C2      -25.5239  -13.2453   29.1023  C.1   1 <0>         0.0856
3    C3      -27.8838  -15.4280   27.8688  C.ar  1 <0>        -0.0544
4    C4      -28.8650  -15.5615   26.8753  C.ar  1 <0>        -0.0375
5    C5      -28.3917  -13.0489   28.1024  C.ar  1 <0>        -0.0469
6    C6      -29.3700  -13.1957   27.1060  C.ar  1 <0>         0.0035
7    C7      -30.2388  -12.2926   26.4998  C.2   1 <0>        -0.0159
8    C8      -27.6209  -14.1749   28.5078  C.ar  1 <0>        -0.0161
9    C9      -29.6002  -14.4267   26.4965  C.ar  1 <0>         0.0470
10   C10     -30.9686  -13.0312   25.5673  C.2   1 <0>         0.0343
11   C11     -31.6750   -8.8153   25.8653  C.2   1 <0>         0.3223
12   C12     -30.4102  -10.8375   26.7109  C.3   1 <0>         0.0005
13   C13     -32.0045  -12.4290   24.7102  C.3   1 <0>         0.0374
14   C14     -31.2041  -10.1773   25.5375  C.3   1 <0>         0.1101
15   C15     -26.5760  -13.9961   29.5715  C.3   1 <0>         0.1571
16   N1      -25.5992  -16.1108   30.5416  N.1   1 <0>        -0.1949
17   N2      -24.6466  -12.6208   28.7117  N.1   1 <0>        -0.1949
18   N3      -30.5493  -14.3079   25.5539  N.2   1 <0>        -0.3567
19   N4      -32.3456  -11.0374   25.1121  N.4   1 <0>        -0.2984
20   O1      -32.3793   -8.1088   24.9501  O.co2 1 <0>        -0.4795
21   O2      -31.0742   -8.1090   26.8526  O.co2 1 <0>        -0.2492
22   H1      -27.3444  -16.2556   28.1198  H     1 <0>         0.0622
23   H2      -29.0346  -16.4652   26.4292  H     1 <0>         0.0638
24   H3      -28.2365  -12.1306   28.5254  H     1 <0>         0.0628
25   H4      -30.9347  -10.6884   27.6594  H     1 <0>         0.0334
26   H5      -29.4252  -10.3674   26.7840  H     1 <0>         0.0334
27   H6      -31.6554  -12.4405   23.6768  H     1 <0>         0.0488
28   H7      -32.9115  -13.0311   24.7714  H     1 <0>         0.0488
29   H8      -30.5215  -10.0760   24.6873  H     1 <0>         0.0579
30   H9      -27.0197  -13.4553   30.4105  H     1 <0>         0.0660
31   H10     -32.8138  -10.6028   24.3160  H     1 <0>         0.1231
32   H11     -33.0080  -11.0889   25.8903  H     1 <0>         0.0000
@<TRIPOS>BOND
     1    1   15 1
     2    1   16 3
     3    2   15 1
     4    2   17 3
     5    3    4 ar
     6    3    8 ar
     7    4    9 ar
     8    5    6 ar
     9    5    8 ar
    10    6    7 1
    11    6    9 ar
    12    7   10 2
    13    7   12 1
    14    8   15 1
    15    9   18 1
    16   10   13 1
    17   10   18 1
    18   11   14 1
    19   11   20 1
    20   11   21 2
    21   12   14 1
    22   13   19 1
    23   14   19 1
    24    3   22 1
    25    4   23 1
    26    5   24 1
    27   12   25 1
    28   12   26 1
    29   13   27 1
    30   13   28 1
    31   14   29 1
    32   15   30 1
    33   19   31 1
    34   19   32 1
@<TRIPOS>PROPERTY_DATA
  Total_Score	| 7.5356
  Crash		| -0.9826
  Polar		| 5.0383

@<TRIPOS>MOLECULE
ligand_uncharged9_001
   32    34     0     0     0
SMALL
USER_CHARGES

@<TRIPOS>ATOM
1    C1      -26.6203  -15.6263   29.8612  C.1   1 <0>         0.0856
2    C2      -25.4381  -14.4137   28.4029  C.1   1 <0>         0.0856
3    C3      -28.1065  -15.8070   27.3608  C.ar  1 <0>        -0.0544
4    C4      -29.1539  -15.8616   26.4187  C.ar  1 <0>        -0.0375
5    C5      -28.4931  -13.4214   27.7164  C.ar  1 <0>        -0.0469
6    C6      -29.5237  -13.4837   26.7617  C.ar  1 <0>         0.0035
7    C7      -30.3680  -12.5190   26.2286  C.2   1 <0>        -0.0159
8    C8      -27.7621  -14.5969   28.0331  C.ar  1 <0>        -0.0161
9    C9      -29.8420  -14.6791   26.1150  C.ar  1 <0>         0.0470
10   C10     -31.1764  -13.1729   25.2997  C.2   1 <0>         0.0343
11   C11     -31.6228   -8.9175   25.8158  C.2   1 <0>         0.3223
12   C12     -30.4374  -11.0707   26.5072  C.3   1 <0>         0.0005
13   C13     -32.2073  -12.4675   24.5150  C.3   1 <0>         0.0374
14   C14     -31.2521  -10.2993   25.4172  C.3   1 <0>         0.1101
15   C15     -26.6492  -14.5297   29.0342  C.3   1 <0>         0.1571
16   N1      -26.6010  -16.5595   30.5283  N.1   1 <0>        -0.1949
17   N2      -24.4247  -14.3079   27.8722  N.1   1 <0>        -0.1949
18   N3      -30.8198  -14.4704   25.2153  N.2   1 <0>        -0.3567
19   N4      -32.4579  -11.0861   25.0157  N.4   1 <0>        -0.2984
20   O1      -32.3504   -8.1376   24.9827  O.co2 1 <0>        -0.4795
21   O2      -31.1029   -8.3281   26.9185  O.co2 1 <0>        -0.2492
22   H1      -27.5887  -16.6663   27.5539  H     1 <0>         0.0622
23   H2      -29.4009  -16.7419   25.9622  H     1 <0>         0.0638
24   H3      -28.2600  -12.5248   28.1518  H     1 <0>         0.0628
25   H4      -30.9024  -10.9481   27.4875  H     1 <0>         0.0334
26   H5      -29.4199  -10.6702   26.5451  H     1 <0>         0.0334
27   H6      -31.8901  -12.4310   23.4723  H     1 <0>         0.0488
28   H7      -33.1480  -13.0194   24.5601  H     1 <0>         0.0488
29   H8      -30.6139  -10.1966   24.5368  H     1 <0>         0.0579
30   H9      -26.7519  -13.6508   29.6799  H     1 <0>         0.0660
31   H10     -32.9541  -10.5900   24.2716  H     1 <0>         0.1231
32   H11     -33.0752  -11.1491   25.8296  H     1 <0>         0.0000
@<TRIPOS>BOND
     1    1   15 1
     2    1   16 3
     3    2   15 1
     4    2   17 3
     5    3    4 ar
     6    3    8 ar
     7    4    9 ar
     8    5    6 ar
     9    5    8 ar
    10    6    7 1
    11    6    9 ar
    12    7   10 2
    13    7   12 1
    14    8   15 1
    15    9   18 1
    16   10   13 1
    17   10   18 1
    18   11   14 1
    19   11   20 1
    20   11   21 2
    21   12   14 1
    22   13   19 1
    23   14   19 1
    24    3   22 1
    25    4   23 1
    26    5   24 1
    27   12   25 1
    28   12   26 1
    29   13   27 1
    30   13   28 1
    31   14   29 1
    32   15   30 1
    33   19   31 1
    34   19   32 1
@<TRIPOS>PROPERTY_DATA
  Total_Score	| 7.5274
  Crash		| -1.2656
  Polar		| 5.0556

@<TRIPOS>MOLECULE
ligand_uncharged9_002
   32    34     0     0     0
SMALL
USER_CHARGES

@<TRIPOS>ATOM
1    C1      -26.4889  -15.3569   27.9898  C.1   1 <0>         0.0856
2    C2      -27.7608  -14.6713   29.7096  C.1   1 <0>         0.0856
3    C3      -29.3358  -16.2551   26.8295  C.ar  1 <0>        -0.0544
4    C4      -30.3175  -16.0443   25.8425  C.ar  1 <0>        -0.0375
5    C5      -29.3062  -13.8672   27.3508  C.ar  1 <0>        -0.0469
6    C6      -30.2993  -13.6732   26.3783  C.ar  1 <0>         0.0035
7    C7      -30.9692  -12.5432   25.9273  C.2   1 <0>        -0.0159
8    C8      -28.8088  -15.1785   27.5899  C.ar  1 <0>        -0.0161
9    C9      -30.7877  -14.7415   25.6273  C.ar  1 <0>         0.0470
10   C10     -31.8425  -12.9833   24.9389  C.2   1 <0>         0.0343
11   C11     -31.7905   -8.7992   25.8638  C.2   1 <0>         0.3223
12   C12     -30.8605  -11.1281   26.3517  C.3   1 <0>         0.0005
13   C13     -32.7387  -12.0793   24.2098  C.3   1 <0>         0.0374
14   C14     -31.5509  -10.1582   25.3344  C.3   1 <0>         0.1101
15   C15     -27.7267  -15.4647   28.5840  C.3   1 <0>         0.1571
16   N1      -25.4654  -15.2604   27.4773  N.1   1 <0>        -0.1949
17   N2      -27.7876  -13.9979   30.6403  N.1   1 <0>        -0.1949
18   N3      -31.6913  -14.3028   24.7341  N.2   1 <0>        -0.3567
19   N4      -32.8330  -10.7346   24.8314  N.4   1 <0>        -0.2984
20   O1      -31.2128   -8.3628   27.0062  O.co2 1 <0>        -0.4795
21   O2      -32.3769   -7.8789   25.0674  O.co2 1 <0>        -0.2492
22   H1      -28.9819  -17.2024   26.9612  H     1 <0>         0.0622
23   H2      -30.6848  -16.8278   25.3016  H     1 <0>         0.0638
24   H3      -28.9509  -13.0628   27.8680  H     1 <0>         0.0628
25   H4      -31.3239  -11.0398   27.3376  H     1 <0>         0.0334
26   H5      -29.8031  -10.8550   26.4370  H     1 <0>         0.0334
27   H6      -32.3806  -11.9812   23.1846  H     1 <0>         0.0488
28   H7      -33.7393  -12.5136   24.1940  H     1 <0>         0.0488
29   H8      -30.8858  -10.0475   24.4754  H     1 <0>         0.0579
30   H9      -27.8146  -16.4940   28.9453  H     1 <0>         0.0660
31   H10     -33.2353  -10.1138   24.1204  H     1 <0>         0.1231
32   H11     -33.4916  -10.7913   25.6124  H     1 <0>         0.0000
@<TRIPOS>BOND
     1    1   15 1
     2    1   16 3
     3    2   15 1
     4    2   17 3
     5    3    4 ar
     6    3    8 ar
     7    4    9 ar
     8    5    6 ar
     9    5    8 ar
    10    6    7 1
    11    6    9 ar
    12    7   10 2
    13    7   12 1
    14    8   15 1
    15    9   18 1
    16   10   13 1
    17   10   18 1
    18   11   14 1
    19   11   20 1
    20   11   21 2
    21   12   14 1
    22   13   19 1
    23   14   19 1
    24    3   22 1
    25    4   23 1
    26    5   24 1
    27   12   25 1
    28   12   26 1
    29   13   27 1
    30   13   28 1
    31   14   29 1
    32   15   30 1
    33   19   31 1
    34   19   32 1
@<TRIPOS>PROPERTY_DATA
  Total_Score	| 7.1386
  Crash		| -2.7094
  Polar		| 4.8323

@<TRIPOS>MOLECULE
ligand_hydrophobic14_000
   34    36     0     0     0
SMALL
USER_CHARGES

@<TRIPOS>ATOM
1    C1      -28.4145  -15.9099   27.0983  C.ar  1 <0>        -0.0526
2    C2      -29.5049  -15.8755   26.2155  C.ar  1 <0>        -0.0372
3    C3      -28.7088  -13.5277   27.6131  C.ar  1 <0>        -0.0452
4    C4      -29.7960  -13.4968   26.7176  C.ar  1 <0>         0.0038
5    C5      -28.0113  -14.7498   27.8185  C.ar  1 <0>        -0.0246
6    C6      -30.6450  -12.4829   26.2773  C.2   1 <0>        -0.0158
7    C7      -30.1695  -14.6561   26.0281  C.ar  1 <0>         0.0470
8    C8      -31.4522  -13.0630   25.2966  C.2   1 <0>         0.0343
9    C9      -26.9759  -14.7958   28.7376  C.2   1 <0>        -0.0588
10   C10     -26.9564  -15.7102   29.7327  C.2   1 <0>        -0.0866
11   C11     -31.8749   -8.8808   26.0112  C.2   1 <0>         0.3223
12   C12     -30.6882  -11.0421   26.6066  C.3   1 <0>         0.0005
13   C13     -32.3822  -12.2976   24.4536  C.3   1 <0>         0.0374
14   C14     -31.9815  -10.3556   26.0558  C.3   1 <0>         0.1101
15   C15     -26.0156  -15.6879   30.8198  C.3   1 <0>        -0.0465
16   N1      -31.1339  -14.3649   25.1385  N.2   1 <0>        -0.3567
17   N2      -32.3015  -10.8374   24.6825  N.4   1 <0>        -0.2984
18   O1      -32.5514   -8.1359   25.1076  O.co2 1 <0>        -0.4795
19   O2      -31.2279   -8.2068   26.9806  O.co2 1 <0>        -0.2492
20   H1      -27.9074  -16.7856   27.1986  H     1 <0>         0.0624
21   H2      -29.8042  -16.7008   25.7075  H     1 <0>         0.0638
22   H3      -28.4495  -12.6844   28.1285  H     1 <0>         0.0630
23   H4      -26.3264  -14.0495   28.7541  H     1 <0>         0.0620
24   H5      -27.6934  -16.3725   29.7915  H     1 <0>         0.0569
25   H6      -30.6503  -10.9085   27.6841  H     1 <0>         0.0334
26   H7      -29.8020  -10.5800   26.1715  H     1 <0>         0.0334
27   H8      -32.1249  -12.4869   23.4170  H     1 <0>         0.0488
28   H9      -33.3936  -12.6486   24.6323  H     1 <0>         0.0488
29   H10     -32.8276  -10.6082   26.6973  H     1 <0>         0.0579
30   H11     -25.6761  -16.7077   31.0218  H     1 <0>         0.0272
31   H12     -25.1359  -15.0742   30.6097  H     1 <0>         0.0272
32   H13     -26.5065  -15.2910   31.7145  H     1 <0>         0.0272
33   H14     -31.5759  -10.4771   24.0621  H     1 <0>         0.1231
34   H15     -33.1968  -10.4400   24.3890  H     1 <0>         0.0000
@<TRIPOS>BOND
     1    1    2 ar
     2    1    5 ar
     3    2    7 ar
     4    3    4 ar
     5    3    5 ar
     6    4    6 1
     7    4    7 ar
     8    5    9 1
     9    6    8 2
    10    6   12 1
    11    7   16 1
    12    8   13 1
    13    8   16 1
    14    9   10 2
    15   10   15 1
    16   11   14 1
    17   11   18 1
    18   11   19 2
    19   12   14 1
    20   13   17 1
    21   14   17 1
    22    1   20 1
    23    2   21 1
    24    3   22 1
    25    9   23 1
    26   10   24 1
    27   12   25 1
    28   12   26 1
    29   13   27 1
    30   13   28 1
    31   14   29 1
    32   15   30 1
    33   15   31 1
    34   15   32 1
    35   17   33 1
    36   17   34 1
@<TRIPOS>PROPERTY_DATA
  Total_Score	| 8.3886
  Crash		| -1.0010
  Polar		| 4.7358

@<TRIPOS>MOLECULE
ligand_hydrophobic14_001
   34    36     0     0     0
SMALL
USER_CHARGES

@<TRIPOS>ATOM
1    C1      -27.7535  -15.6817   27.9546  C.ar  1 <0>        -0.0526
2    C2      -28.8034  -15.7237   27.0276  C.ar  1 <0>        -0.0372
3    C3      -28.0589  -13.2668   28.2235  C.ar  1 <0>        -0.0452
4    C4      -29.1510  -13.3167   27.3277  C.ar  1 <0>         0.0038
5    C5      -27.3614  -14.4581   28.5790  C.ar  1 <0>        -0.0246
6    C6      -30.0522  -12.3784   26.8021  C.2   1 <0>        -0.0158
7    C7      -29.4950  -14.5397   26.7438  C.ar  1 <0>         0.0470
8    C8      -30.9120  -13.1014   25.9664  C.2   1 <0>         0.0343
9    C9      -26.3018  -14.4263   29.4816  C.2   1 <0>        -0.0588
10   C10     -26.1031  -15.3169   30.4966  C.2   1 <0>        -0.0866
11   C11     -31.3424   -8.8494   25.9326  C.2   1 <0>         0.3223
12   C12     -30.1377  -10.9041   26.9395  C.3   1 <0>         0.0005
13   C13     -32.0520  -12.4940   25.2544  C.3   1 <0>         0.0374
14   C14     -31.4343  -10.2868   26.2853  C.3   1 <0>         0.1101
15   C15     -24.9541  -15.3325   31.3696  C.3   1 <0>        -0.0465
16   N1      -30.5535  -14.3966   25.9270  N.2   1 <0>        -0.3567
17   N2      -31.8387  -11.0405   25.0580  N.4   1 <0>        -0.2984
18   O1      -30.7308   -8.0140   26.8168  O.co2 1 <0>        -0.4795
19   O2      -32.3035   -8.2817   25.1525  O.co2 1 <0>        -0.2492
20   H1      -27.2477  -16.5490   28.1717  H     1 <0>         0.0624
21   H2      -29.0507  -16.6046   26.5716  H     1 <0>         0.0638
22   H3      -27.8061  -12.3666   28.6460  H     1 <0>         0.0630
23   H4      -25.6521  -13.6655   29.4227  H     1 <0>         0.0620
24   H5      -26.7735  -16.0425   30.6240  H     1 <0>         0.0569
25   H6      -30.1373  -10.6393   27.9929  H     1 <0>         0.0334
26   H7      -29.2468  -10.4743   26.4745  H     1 <0>         0.0334
27   H8      -32.1718  -12.9710   24.2847  H     1 <0>         0.0488
28   H9      -32.9532  -12.6473   25.8342  H     1 <0>         0.0488
29   H10     -32.2603  -10.3814   26.9957  H     1 <0>         0.0579
30   H11     -24.3542  -16.2292   31.1653  H     1 <0>         0.0272
31   H12     -24.3126  -14.4512   31.2481  H     1 <0>         0.0272
32   H13     -25.2759  -15.3722   32.4166  H     1 <0>         0.0272
33   H14     -31.1226  -10.9051   24.3403  H     1 <0>         0.1231
34   H15     -32.7247  -10.6500   24.7087  H     1 <0>         0.0000
@<TRIPOS>BOND
     1    1    2 ar
     2    1    5 ar
     3    2    7 ar
     4    3    4 ar
     5    3    5 ar
     6    4    6 1
     7    4    7 ar
     8    5    9 1
     9    6    8 2
    10    6   12 1
    11    7   16 1
    12    8   13 1
    13    8   16 1
    14    9   10 2
    15   10   15 1
    16   11   14 1
    17   11   18 1
    18   11   19 2
    19   12   14 1
    20   13   17 1
    21   14   17 1
    22    1   20 1
    23    2   21 1
    24    3   22 1
    25    9   23 1
    26   10   24 1
    27   12   25 1
    28   12   26 1
    29   13   27 1
    30   13   28 1
    31   14   29 1
    32   15   30 1
    33   15   31 1
    34   15   32 1
    35   17   33 1
    36   17   34 1
@<TRIPOS>PROPERTY_DATA
  Total_Score	| 8.2106
  Crash		| -0.9886
  Polar		| 4.6270

@<TRIPOS>MOLECULE
ligand_hydrophobic14_002
   34    36     0     0     0
SMALL
USER_CHARGES

@<TRIPOS>ATOM
1    C1      -28.6484  -15.8718   27.5547  C.ar  1 <0>        -0.0526
2    C2      -29.5702  -15.8548   26.4906  C.ar  1 <0>        -0.0372
3    C3      -28.9834  -13.4875   27.9359  C.ar  1 <0>        -0.0452
4    C4      -29.9099  -13.4805   26.8803  C.ar  1 <0>         0.0038
5    C5      -28.3277  -14.6932   28.2981  C.ar  1 <0>        -0.0246
6    C6      -30.6916  -12.4746   26.3274  C.2   1 <0>        -0.0158
7    C7      -30.1963  -14.6420   26.1640  C.ar  1 <0>         0.0470
8    C8      -31.3971  -13.0700   25.2807  C.2   1 <0>         0.0343
9    C9      -27.4053  -14.6633   29.3527  C.2   1 <0>        -0.0588
10   C10     -26.6716  -15.6881   29.8246  C.2   1 <0>        -0.0866
11   C11     -31.8470   -8.8624   25.9373  C.2   1 <0>         0.3223
12   C12     -30.7773  -11.0376   26.6634  C.3   1 <0>         0.0005
13   C13     -32.3142  -12.3132   24.4128  C.3   1 <0>         0.0374
14   C14     -31.9911  -10.3359   25.9701  C.3   1 <0>         0.1101
15   C15     -25.7615  -15.5403   30.9319  C.3   1 <0>        -0.0465
16   N1      -31.0709  -14.3723   25.1804  N.2   1 <0>        -0.3567
17   N2      -32.1562  -10.8440   24.5811  N.4   1 <0>        -0.2984
18   O1      -31.1671   -8.2105   26.9078  O.co2 1 <0>        -0.4795
19   O2      -32.5610   -8.1047   25.0727  O.co2 1 <0>        -0.2492
20   H1      -28.2214  -16.7683   27.7725  H     1 <0>         0.0624
21   H2      -29.7832  -16.7075   25.9751  H     1 <0>         0.0638
22   H3      -28.8048  -12.6069   28.4335  H     1 <0>         0.0630
23   H4      -27.2698  -13.7866   29.8111  H     1 <0>         0.0620
24   H5      -26.7299  -16.5863   29.4141  H     1 <0>         0.0569
25   H6      -30.8605  -10.9168   27.7465  H     1 <0>         0.0334
26   H7      -29.8379  -10.5767   26.3409  H     1 <0>         0.0334
27   H8      -32.1046  -12.5584   23.3722  H     1 <0>         0.0488
28   H9      -33.3380  -12.6047   24.6448  H     1 <0>         0.0488
29   H10     -32.9022  -10.5719   26.5272  H     1 <0>         0.0579
30   H11     -24.9984  -14.7969   30.6885  H     1 <0>         0.0272
31   H12     -26.3057  -15.2200   31.8230  H     1 <0>         0.0272
32   H13     -25.2649  -16.4898   31.1519  H     1 <0>         0.0272
33   H14     -31.3228  -10.5687   24.0632  H     1 <0>         0.1231
34   H15     -32.9639  -10.3936   24.1477  H     1 <0>         0.0000
@<TRIPOS>BOND
     1    1    2 ar
     2    1    5 ar
     3    2    7 ar
     4    3    4 ar
     5    3    5 ar
     6    4    6 1
     7    4    7 ar
     8    5    9 1
     9    6    8 2
    10    6   12 1
    11    7   16 1
    12    8   13 1
    13    8   16 1
    14    9   10 2
    15   10   15 1
    16   11   14 1
    17   11   18 1
    18   11   19 2
    19   12   14 1
    20   13   17 1
    21   14   17 1
    22    1   20 1
    23    2   21 1
    24    3   22 1
    25    9   23 1
    26   10   24 1
    27   12   25 1
    28   12   26 1
    29   13   27 1
    30   13   28 1
    31   14   29 1
    32   15   30 1
    33   15   31 1
    34   15   32 1
    35   17   33 1
    36   17   34 1
@<TRIPOS>PROPERTY_DATA
  Total_Score	| 8.1162
  Crash		| -1.2969
  Polar		| 4.6691

@<TRIPOS>MOLECULE
ligand_uncharged16_000
   29    31     0     0     0
SMALL
USER_CHARGES

@<TRIPOS>ATOM
1    C1      -27.2099  -14.7222   27.7394  C.ar  1 <0>        -0.0481
2    C2      -28.5237  -14.9847   27.2876  C.ar  1 <0>        -0.0373
3    C3      -27.5508  -12.3222   27.4138  C.ar  1 <0>        -0.0407
4    C4      -28.8620  -12.5949   26.9791  C.ar  1 <0>         0.0037
5    C5      -26.6974  -13.3955   27.7852  C.ar  1 <0>         0.0555
6    C6      -29.8942  -11.8117   26.5704  C.2   1 <0>        -0.0158
7    C7      -29.3311  -13.9018   26.9048  C.ar  1 <0>         0.0470
8    C8      -30.8965  -12.6527   26.2354  C.cat 1 <0>         0.0343
9    C9      -31.4850   -8.4468   25.8725  C.2   1 <0>         0.3223
10   C10     -29.9596  -10.3616   26.4800  C.3   1 <0>         0.0005
11   C11     -32.1672  -12.1957   25.7000  C.3   1 <0>         0.0374
12   C12     -31.4287   -9.8624   26.3005  C.3   1 <0>         0.1101
13   C13     -25.2981  -13.0923   28.2085  C.3   1 <0>         0.4174
14   N1      -30.5614  -13.8838   26.4550  N.2   1 <0>        -0.3567
15   N2      -32.1602  -10.7492   25.3551  N.3   1 <0>        -0.2984
16   O1      -32.3893   -8.0410   24.9488  O.co2 1 <0>        -0.4795
17   O2      -30.7913   -7.5077   26.5597  O.co2 1 <0>        -0.2492
18   F1      -24.5420  -14.2021   28.5125  F     1 <0>        -0.1659
19   F2      -24.6357  -12.4224   27.2048  F     1 <0>        -0.1659
20   F3      -25.3040  -12.2949   29.3315  F     1 <0>        -0.1659
21   H1      -26.6328  -15.5181   28.0229  H     1 <0>         0.0624
22   H2      -28.8828  -15.9441   27.2342  H     1 <0>         0.0638
23   H3      -27.2199  -11.3546   27.4448  H     1 <0>         0.0630
24   H4      -29.5487   -9.9194   27.3961  H     1 <0>         0.0334
25   H5      -29.3392  -10.0542   25.6342  H     1 <0>         0.0334
26   H6      -32.3962  -12.7515   24.7912  H     1 <0>         0.0488
27   H7      -32.9583  -12.4006   26.4205  H     1 <0>         0.0488
28   H8      -31.9301   -9.9247   27.2687  H     1 <0>         0.0579
29   H9      -31.7311  -10.6413   24.4322  H     1 <0>         0.1231
@<TRIPOS>BOND
     1    1    2 ar
     2    1    5 ar
     3    2    7 ar
     4    3    4 ar
     5    3    5 ar
     6    4    6 2
     7    4    7 ar
     8    5   13 1
     9    6    8 1
    10    6   10 1
    11    7   14 2
    12    8   11 1
    13    8   14 1
    14    9   12 1
    15    9   16 1
    16    9   17 2
    17   10   12 1
    18   11   15 1
    19   12   15 1
    20   13   18 1
    21   13   19 1
    22   13   20 1
    23    1   21 1
    24    2   22 1
    25    3   23 1
    26   10   24 1
    27   10   25 1
    28   11   26 1
    29   11   27 1
    30   12   28 1
    31   15   29 1
@<TRIPOS>PROPERTY_DATA
  Total_Score	| 8.6883
  Crash		| -0.3863
  Polar		| 6.0199

@<TRIPOS>MOLECULE
ligand_uncharged16_001
   29    31     0     0     0
SMALL
USER_CHARGES

@<TRIPOS>ATOM
1    C1      -29.1535  -16.0155   27.1118  C.ar  1 <0>        -0.0481
2    C2      -30.0863  -15.8540   26.0662  C.ar  1 <0>        -0.0373
3    C3      -29.2867  -13.6343   27.6372  C.ar  1 <0>        -0.0407
4    C4      -30.2209  -13.4878   26.6014  C.ar  1 <0>         0.0037
5    C5      -28.7409  -14.9133   27.9147  C.ar  1 <0>         0.0555
6    C6      -30.9193  -12.4256   26.1200  C.2   1 <0>        -0.0158
7    C7      -30.6054  -14.5752   25.8179  C.ar  1 <0>         0.0470
8    C8      -31.6460  -12.8905   25.0834  C.cat 1 <0>         0.0343
9    C9      -31.8397   -8.7529   26.0241  C.2   1 <0>         0.3223
10   C10     -30.8801  -11.0375   26.5452  C.3   1 <0>         0.0005
11   C11     -32.5347  -12.0543   24.2996  C.3   1 <0>         0.0374
12   C12     -32.0750  -10.2121   25.9621  C.3   1 <0>         0.1101
13   C13     -27.7637  -15.0562   29.0278  C.3   1 <0>         0.4174
14   N1      -31.4627  -14.1608   24.9190  N.2   1 <0>        -0.3567
15   N2      -32.3191  -10.6035   24.5481  N.3   1 <0>        -0.2984
16   O1      -31.1264   -8.2124   27.0407  O.co2 1 <0>        -0.4795
17   O2      -32.4397   -7.9147   25.1485  O.co2 1 <0>        -0.2492
18   F1      -27.2998  -16.3354   29.2188  F     1 <0>        -0.1659
19   F2      -26.6646  -14.2644   28.7954  F     1 <0>        -0.1659
20   F3      -28.3384  -14.6642   30.2134  F     1 <0>        -0.1659
21   H1      -28.7813  -16.9494   27.2878  H     1 <0>         0.0624
22   H2      -30.3816  -16.6565   25.5040  H     1 <0>         0.0638
23   H3      -29.0146  -12.8156   28.1902  H     1 <0>         0.0630
24   H4      -30.9126  -10.9861   27.6375  H     1 <0>         0.0334
25   H5      -29.9255  -10.6207   26.2078  H     1 <0>         0.0334
26   H6      -32.3526  -12.2368   23.2377  H     1 <0>         0.0488
27   H7      -33.5694  -12.3194   24.5233  H     1 <0>         0.0488
28   H8      -32.9753  -10.4358   26.5397  H     1 <0>         0.0579
29   H9      -31.5126  -10.3027   23.9981  H     1 <0>         0.1231
@<TRIPOS>BOND
     1    1    2 ar
     2    1    5 ar
     3    2    7 ar
     4    3    4 ar
     5    3    5 ar
     6    4    6 2
     7    4    7 ar
     8    5   13 1
     9    6    8 1
    10    6   10 1
    11    7   14 2
    12    8   11 1
    13    8   14 1
    14    9   12 1
    15    9   16 1
    16    9   17 2
    17   10   12 1
    18   11   15 1
    19   12   15 1
    20   13   18 1
    21   13   19 1
    22   13   20 1
    23    1   21 1
    24    2   22 1
    25    3   23 1
    26   10   24 1
    27   10   25 1
    28   11   26 1
    29   11   27 1
    30   12   28 1
    31   15   29 1
@<TRIPOS>PROPERTY_DATA
  Total_Score	| 7.4526
  Crash		| -1.3606
  Polar		| 4.3590

@<TRIPOS>MOLECULE
ligand_uncharged16_002
   29    31     0     0     0
SMALL
USER_CHARGES

@<TRIPOS>ATOM
1    C1      -31.9921  -11.7820   24.7531  C.ar  1 <0>        -0.0481
2    C2      -31.8157  -13.1718   24.5608  C.ar  1 <0>        -0.0373
3    C3      -30.5022  -11.8357   26.6886  C.ar  1 <0>        -0.0407
4    C4      -30.3473  -13.2191   26.4984  C.ar  1 <0>         0.0037
5    C5      -31.3314  -11.0917   25.8081  C.ar  1 <0>         0.0555
6    C6      -29.6350  -14.1703   27.1586  C.2   1 <0>        -0.0158
7    C7      -30.9814  -13.8744   25.4473  C.ar  1 <0>         0.0470
8    C8      -29.8851  -15.3288   26.5148  C.cat 1 <0>         0.0343
9    C9      -27.3269  -15.4266   29.9205  C.2   1 <0>         0.3223
10   C10     -28.7954  -14.0349   28.3419  C.3   1 <0>         0.0005
11   C11     -29.3368  -16.5985   26.9498  C.3   1 <0>         0.0374
12   C12     -27.9176  -15.3074   28.5731  C.3   1 <0>         0.1101
13   C13     -31.4728   -9.6237   26.0249  C.3   1 <0>         0.4174
14   N1      -30.6589  -15.1433   25.4933  N.2   1 <0>        -0.3567
15   N2      -28.7274  -16.5223   28.3049  N.3   1 <0>        -0.2984
16   O1      -26.3731  -16.3580   30.1482  O.co2 1 <0>        -0.4795
17   O2      -27.7135  -14.6321   30.9446  O.co2 1 <0>        -0.2492
18   F1      -32.2992   -8.9925   25.1257  F     1 <0>        -0.1659
19   F2      -31.9823   -9.3856   27.2781  F     1 <0>        -0.1659
20   F3      -30.2424   -9.0187   25.9325  F     1 <0>        -0.1659
21   H1      -32.6100  -11.2798   24.1084  H     1 <0>         0.0624
22   H2      -32.2830  -13.6553   23.7875  H     1 <0>         0.0638
23   H3      -30.0123  -11.3778   27.4603  H     1 <0>         0.0630
24   H4      -28.1413  -13.1659   28.2242  H     1 <0>         0.0334
25   H5      -29.4513  -13.8590   29.1980  H     1 <0>         0.0334
26   H6      -30.1332  -17.3440   26.9871  H     1 <0>         0.0488
27   H7      -28.5826  -16.9276   26.2325  H     1 <0>         0.0488
28   H8      -27.0906  -15.2774   27.8577  H     1 <0>         0.0579
29   H9      -29.4733  -16.5730   29.0035  H     1 <0>         0.1231
@<TRIPOS>BOND
     1    1    2 ar
     2    1    5 ar
     3    2    7 ar
     4    3    4 ar
     5    3    5 ar
     6    4    6 2
     7    4    7 ar
     8    5   13 1
     9    6    8 1
    10    6   10 1
    11    7   14 2
    12    8   11 1
    13    8   14 1
    14    9   12 1
    15    9   16 1
    16    9   17 2
    17   10   12 1
    18   11   15 1
    19   12   15 1
    20   13   18 1
    21   13   19 1
    22   13   20 1
    23    1   21 1
    24    2   22 1
    25    3   23 1
    26   10   24 1
    27   10   25 1
    28   11   26 1
    29   11   27 1
    30   12   28 1
    31   15   29 1
@<TRIPOS>PROPERTY_DATA
  Total_Score	| 7.4095
  Crash		| -0.5569
  Polar		| 2.4054

@<TRIPOS>MOLECULE
ligand_uncharged23_000
   33    35     0     0     0
SMALL
USER_CHARGES

@<TRIPOS>ATOM
1    C1      -29.4232  -15.9317   26.4572  C.ar  1 <0>        -0.0360
2    C2      -28.4825  -15.9499   27.5061  C.ar  1 <0>        -0.0349
3    C3      -28.7888  -13.5505   27.8691  C.ar  1 <0>        -0.0275
4    C4      -29.7277  -13.5429   26.8212  C.ar  1 <0>         0.0050
5    C5      -30.4871  -12.5315   26.2472  C.2   1 <0>        -0.0158
6    C6      -30.0333  -14.7129   26.1219  C.ar  1 <0>         0.0471
7    C7      -28.1545  -14.7675   28.2138  C.ar  1 <0>         0.0886
8    C8      -31.2379  -13.1390   25.2400  C.2   1 <0>         0.0343
9    C9      -31.6388   -8.9043   25.8004  C.2   1 <0>         0.3223
10   C10     -30.5512  -11.0869   26.5595  C.3   1 <0>         0.0005
11   C11     -32.1894  -12.3919   24.3960  C.3   1 <0>         0.0374
12   C12     -31.2494  -10.2809   25.4148  C.3   1 <0>         0.1101
13   C13     -26.2966  -16.4061   29.9020  C.3   1 <0>         0.0596
14   N1      -30.9298  -14.4489   25.1555  N.2   1 <0>        -0.3567
15   N2      -32.4401  -11.0147   24.8963  N.4   1 <0>        -0.2984
16   O1      -32.3430   -8.1400   24.9329  O.co2 1 <0>        -0.4795
17   O2      -31.0376   -8.2701   26.8338  O.co2 1 <0>        -0.2492
18   O3      -25.7740  -13.8095   29.1109  O.2   1 <0>        -0.1696
19   O4      -27.6491  -14.1745   30.7992  O.2   1 <0>        -0.1696
20   S1      -26.9718  -14.7820   29.4960  S.o2  1 <0>        -0.0059
21   H1      -29.6558  -16.7890   25.9520  H     1 <0>         0.0639
22   H2      -28.0383  -16.8362   27.7431  H     1 <0>         0.0637
23   H3      -28.5725  -12.6827   28.3641  H     1 <0>         0.0643
24   H4      -31.0946  -10.9654   27.4983  H     1 <0>         0.0334
25   H5      -29.5361  -10.7050   26.6977  H     1 <0>         0.0334
26   H6      -31.8058  -12.3506   23.3759  H     1 <0>         0.0488
27   H7      -33.1425  -12.9220   24.3771  H     1 <0>         0.0488
28   H8      -30.5331  -10.1783   24.5956  H     1 <0>         0.0579
29   H9      -25.5435  -16.3021   30.6827  H     1 <0>         0.0468
30   H10     -27.0966  -17.0562   30.2577  H     1 <0>         0.0468
31   H11     -25.8370  -16.8446   29.0153  H     1 <0>         0.0468
32   H12     -32.8482  -10.4837   24.1223  H     1 <0>         0.1231
33   H13     -33.1289  -11.0703   25.6501  H     1 <0>         0.0000
@<TRIPOS>BOND
     1    1    2 ar
     2    1    6 ar
     3    2    7 ar
     4    3    4 ar
     5    3    7 ar
     6    4    5 1
     7    4    6 ar
     8    5    8 2
     9    5   10 1
    10    6   14 1
    11    7   20 1
    12    8   11 1
    13    8   14 1
    14    9   12 1
    15    9   16 1
    16    9   17 2
    17   10   12 1
    18   11   15 1
    19   12   15 1
    20   13   20 1
    21   18   20 2
    22   19   20 2
    23    1   21 1
    24    2   22 1
    25    3   23 1
    26   10   24 1
    27   10   25 1
    28   11   26 1
    29   11   27 1
    30   12   28 1
    31   13   29 1
    32   13   30 1
    33   13   31 1
    34   15   32 1
    35   15   33 1
@<TRIPOS>PROPERTY_DATA
  Total_Score	| 8.3917
  Crash		| -1.2887
  Polar		| 5.0906

@<TRIPOS>MOLECULE
ligand_uncharged23_001
   33    35     0     0     0
SMALL
USER_CHARGES

@<TRIPOS>ATOM
1    C1      -29.3038  -15.8952   26.5342  C.ar  1 <0>        -0.0360
2    C2      -28.3625  -15.8817   27.5862  C.ar  1 <0>        -0.0349
3    C3      -28.7180  -13.4831   27.9143  C.ar  1 <0>        -0.0275
4    C4      -29.6472  -13.5088   26.8606  C.ar  1 <0>         0.0050
5    C5      -30.4168  -12.5126   26.2774  C.2   1 <0>        -0.0158
6    C6      -29.9336  -14.6910   26.1753  C.ar  1 <0>         0.0471
7    C7      -28.0544  -14.6794   28.2702  C.ar  1 <0>         0.0886
8    C8      -31.1649  -13.1377   25.2811  C.2   1 <0>         0.0343
9    C9      -31.7036   -8.9249   25.9198  C.2   1 <0>         0.3223
10   C10     -30.4926  -11.0699   26.5908  C.3   1 <0>         0.0005
11   C11     -32.1465  -12.4071   24.4577  C.3   1 <0>         0.0374
12   C12     -31.2675  -10.2737   25.4886  C.3   1 <0>         0.1101
13   C13     -25.6011  -13.4080   29.2746  C.3   1 <0>         0.0596
14   N1      -30.8404  -14.4458   25.2103  N.2   1 <0>        -0.3567
15   N2      -32.4409  -11.0502   24.9935  N.4   1 <0>        -0.2984
16   O1      -32.3433   -8.1140   25.0455  O.co2 1 <0>        -0.4795
17   O2      -31.2268   -8.3559   27.0516  O.co2 1 <0>        -0.2492
18   O3      -27.6409  -14.2729   30.8981  O.2   1 <0>        -0.1696
19   O4      -26.1827  -16.0669   29.7726  O.2   1 <0>        -0.1696
20   S1      -26.8780  -14.6526   29.5567  S.o2  1 <0>        -0.0059
21   H1      -29.5243  -16.7652   26.0441  H     1 <0>         0.0639
22   H2      -27.9031  -16.7556   27.8465  H     1 <0>         0.0637
23   H3      -28.5302  -12.6062   28.4053  H     1 <0>         0.0643
24   H4      -30.9801  -10.9640   27.5625  H     1 <0>         0.0334
25   H5      -29.4779  -10.6700   26.6702  H     1 <0>         0.0334
26   H6      -31.7738  -12.3296   23.4355  H     1 <0>         0.0488
27   H7      -33.0816  -12.9677   24.4357  H     1 <0>         0.0488
28   H8      -30.5862  -10.1221   24.6480  H     1 <0>         0.0579
29   H9      -24.8597  -13.4565   30.0728  H     1 <0>         0.0468
30   H10     -25.1105  -13.5970   28.3194  H     1 <0>         0.0468
31   H11     -26.0466  -12.4127   29.2619  H     1 <0>         0.0468
32   H12     -32.9008  -10.5246   24.2459  H     1 <0>         0.1231
33   H13     -33.1012  -11.1523   25.7688  H     1 <0>         0.0000
@<TRIPOS>BOND
     1    1    2 ar
     2    1    6 ar
     3    2    7 ar
     4    3    4 ar
     5    3    7 ar
     6    4    5 1
     7    4    6 ar
     8    5    8 2
     9    5   10 1
    10    6   14 1
    11    7   20 1
    12    8   11 1
    13    8   14 1
    14    9   12 1
    15    9   16 1
    16    9   17 2
    17   10   12 1
    18   11   15 1
    19   12   15 1
    20   13   20 1
    21   18   20 2
    22   19   20 2
    23    1   21 1
    24    2   22 1
    25    3   23 1
    26   10   24 1
    27   10   25 1
    28   11   26 1
    29   11   27 1
    30   12   28 1
    31   13   29 1
    32   13   30 1
    33   13   31 1
    34   15   32 1
    35   15   33 1
@<TRIPOS>PROPERTY_DATA
  Total_Score	| 8.2490
  Crash		| -1.1295
  Polar		| 4.8556

@<TRIPOS>MOLECULE
ligand_uncharged23_002
   33    35     0     0     0
SMALL
USER_CHARGES

@<TRIPOS>ATOM
1    C1      -29.3268  -15.9085   26.5121  C.ar  1 <0>        -0.0360
2    C2      -28.3886  -15.9035   27.5660  C.ar  1 <0>        -0.0349
3    C3      -28.7237  -13.5015   27.8941  C.ar  1 <0>        -0.0275
4    C4      -29.6516  -13.5176   26.8386  C.ar  1 <0>         0.0050
5    C5      -30.4109  -12.5165   26.2513  C.2   1 <0>        -0.0158
6    C6      -29.9462  -14.6987   26.1538  C.ar  1 <0>         0.0471
7    C7      -28.0740  -14.7047   28.2535  C.ar  1 <0>         0.0886
8    C8      -31.1626  -13.1389   25.2542  C.2   1 <0>         0.0343
9    C9      -31.6985   -8.9273   25.8959  C.2   1 <0>         0.3223
10   C10     -30.4799  -11.0712   26.5583  C.3   1 <0>         0.0005
11   C11     -32.1361  -12.4046   24.4251  C.3   1 <0>         0.0374
12   C12     -31.2553  -10.2735   25.4584  C.3   1 <0>         0.1101
13   C13     -25.6313  -13.4467   29.2466  C.3   1 <0>         0.0596
14   N1      -30.8488  -14.4488   25.1868  N.2   1 <0>        -0.3567
15   N2      -32.4285  -11.0481   24.9605  N.4   1 <0>        -0.2984
16   O1      -31.2316   -8.3617   27.0331  O.co2 1 <0>        -0.4795
17   O2      -32.3504   -8.1189   25.0284  O.co2 1 <0>        -0.2492
18   O3      -27.6536  -14.3237   30.8920  O.2   1 <0>        -0.1696
19   O4      -26.1969  -16.1084   29.7349  O.2   1 <0>        -0.1696
20   S1      -26.9007  -14.6950   29.5419  S.o2  1 <0>        -0.0059
21   H1      -29.5513  -16.7752   26.0187  H     1 <0>         0.0639
22   H2      -27.9340  -16.7804   27.8226  H     1 <0>         0.0637
23   H3      -28.5252  -12.6251   28.3822  H     1 <0>         0.0643
24   H4      -30.9644  -10.9634   27.5316  H     1 <0>         0.0334
25   H5      -29.4633  -10.6748   26.6348  H     1 <0>         0.0334
26   H6      -31.7552  -12.3285   23.4060  H     1 <0>         0.0488
27   H7      -33.0733  -12.9622   24.3953  H     1 <0>         0.0488
28   H8      -30.5748  -10.1163   24.6182  H     1 <0>         0.0579
29   H9      -24.8953  -13.4729   30.0505  H     1 <0>         0.0468
30   H10     -25.1342  -13.6515   28.2980  H     1 <0>         0.0468
31   H11     -26.0852  -12.4560   29.2105  H     1 <0>         0.0468
32   H12     -32.8872  -10.5217   24.2131  H     1 <0>         0.1231
33   H13     -33.0896  -11.1500   25.7353  H     1 <0>         0.0000
@<TRIPOS>BOND
     1    1    2 ar
     2    1    6 ar
     3    2    7 ar
     4    3    4 ar
     5    3    7 ar
     6    4    5 1
     7    4    6 ar
     8    5    8 2
     9    5   10 1
    10    6   14 1
    11    7   20 1
    12    8   11 1
    13    8   14 1
    14    9   12 1
    15    9   16 1
    16    9   17 2
    17   10   12 1
    18   11   15 1
    19   12   15 1
    20   13   20 1
    21   18   20 2
    22   19   20 2
    23    1   21 1
    24    2   22 1
    25    3   23 1
    26   10   24 1
    27   10   25 1
    28   11   26 1
    29   11   27 1
    30   12   28 1
    31   13   29 1
    32   13   30 1
    33   13   31 1
    34   15   32 1
    35   15   33 1
@<TRIPOS>PROPERTY_DATA
  Total_Score	| 8.1771
  Crash		| -1.1969
  Polar		| 4.8693

@<TRIPOS>MOLECULE
ligand_uncharged26_000
   46    48     0     0     0
SMALL
USER_CHARGES

@<TRIPOS>ATOM
1    C1      -27.3373  -14.8931   27.3699  C.ar  1 <0>        -0.0538
2    C2      -28.6414  -15.0815   26.8826  C.ar  1 <0>        -0.0374
3    C3      -27.6718  -12.4710   27.4234  C.ar  1 <0>        -0.0463
4    C4      -28.9688  -12.6662   26.9070  C.ar  1 <0>         0.0035
5    C5      -29.9993  -11.8026   26.5461  C.2   1 <0>        -0.0159
6    C6      -26.8414  -13.5986   27.6841  C.ar  1 <0>        -0.0124
7    C7      -29.4459  -13.9545   26.6673  C.ar  1 <0>         0.0470
8    C8      -31.0556  -12.6119   26.1225  C.2   1 <0>         0.0343
9    C9      -31.5324   -8.3775   25.9341  C.2   1 <0>         0.3223
10   C10     -30.0507  -10.3260   26.4945  C.3   1 <0>         0.0005
11   C11     -32.3472  -12.0799   25.6519  C.3   1 <0>         0.0374
12   C12     -31.5168   -9.7988   26.3348  C.3   1 <0>         0.1101
13   C13     -23.6849  -18.4611   29.7902  C.3   1 <0>        -0.0653
14   C14     -24.5378  -17.4375   30.5768  C.3   1 <0>        -0.0559
15   C15     -25.3098  -16.4797   29.6274  C.3   1 <0>        -0.0532
16   C16     -25.9486  -15.2196   30.2977  C.3   1 <0>        -0.0500
17   C17     -25.4290  -13.8306   29.8091  C.3   1 <0>        -0.0167
18   C18     -25.4767  -13.4767   28.2913  C.3   1 <0>         0.1235
19   N1      -30.7005  -13.9062   26.2014  N.2   1 <0>        -0.3567
20   N2      -32.2673  -10.6294   25.3498  N.4   1 <0>        -0.2984
21   O1      -32.3479   -7.9287   24.9523  O.co2 1 <0>        -0.4795
22   O2      -30.7603   -7.4834   26.5920  O.co2 1 <0>        -0.2492
23   O3      -24.9146  -12.1688   28.1422  O.3   1 <0>        -0.3807
24   H1      -26.7391  -15.7166   27.4915  H     1 <0>         0.0622
25   H2      -28.9843  -16.0225   26.6681  H     1 <0>         0.0638
26   H3      -27.3555  -11.5190   27.6191  H     1 <0>         0.0628
27   H4      -29.6146   -9.9192   27.4115  H     1 <0>         0.0334
28   H5      -29.4335  -10.0065   25.6480  H     1 <0>         0.0334
29   H6      -32.6335  -12.5944   24.7307  H     1 <0>         0.0488
30   H7      -33.1180  -12.2584   26.4072  H     1 <0>         0.0488
31   H8      -32.0221   -9.8726   27.3025  H     1 <0>         0.0579
32   H9      -22.9008  -17.9442   29.2300  H     1 <0>         0.0230
33   H10     -24.3014  -19.0229   29.0852  H     1 <0>         0.0230
34   H11     -23.2137  -19.1638   30.4792  H     1 <0>         0.0230
35   H12     -25.2498  -17.9765   31.2003  H     1 <0>         0.0263
36   H13     -23.8818  -16.8614   31.2332  H     1 <0>         0.0263
37   H14     -26.1026  -17.0615   29.1498  H     1 <0>         0.0265
38   H15     -24.6252  -16.1674   28.8400  H     1 <0>         0.0265
39   H16     -27.0331  -15.2480   30.1539  H     1 <0>         0.0266
40   H17     -25.7928  -15.2660   31.3819  H     1 <0>         0.0266
41   H18     -24.3957  -13.7244   30.1482  H     1 <0>         0.0297
42   H19     -26.0113  -13.0648   30.3255  H     1 <0>         0.0297
43   H20     -24.7932  -14.1238   27.7395  H     1 <0>         0.0000
44   H21     -31.7913  -10.5279   24.4489  H     1 <0>         0.1231
45   H22     -33.2225  -10.2667   25.2632  H     1 <0>         0.0000
46   H23     -25.4764  -11.5736   28.6807  H     1 <0>         0.2108
@<TRIPOS>BOND
     1    1    2 ar
     2    1    6 ar
     3    2    7 ar
     4    3    4 ar
     5    3    6 ar
     6    4    5 1
     7    4    7 ar
     8    5    8 2
     9    5   10 1
    10    6   18 1
    11    7   19 1
    12    8   11 1
    13    8   19 1
    14    9   12 1
    15    9   21 1
    16    9   22 2
    17   10   12 1
    18   11   20 1
    19   12   20 1
    20   13   14 1
    21   14   15 1
    22   15   16 1
    23   16   17 1
    24   17   18 1
    25   18   23 1
    26    1   24 1
    27    2   25 1
    28    3   26 1
    29   10   27 1
    30   10   28 1
    31   11   29 1
    32   11   30 1
    33   12   31 1
    34   13   32 1
    35   13   33 1
    36   13   34 1
    37   14   35 1
    38   14   36 1
    39   15   37 1
    40   15   38 1
    41   16   39 1
    42   16   40 1
    43   17   41 1
    44   17   42 1
    45   18   43 1
    46   20   44 1
    47   20   45 1
    48   23   46 1
@<TRIPOS>PROPERTY_DATA
  Total_Score	| 11.1841
  Crash		| -1.7202
  Polar		| 7.2223

@<TRIPOS>MOLECULE
ligand_uncharged26_001
   46    48     0     0     0
SMALL
USER_CHARGES

@<TRIPOS>ATOM
1    C1      -27.3085  -14.8869   27.3312  C.ar  1 <0>        -0.0538
2    C2      -28.6386  -15.0858   26.9157  C.ar  1 <0>        -0.0374
3    C3      -27.6414  -12.4709   27.4123  C.ar  1 <0>        -0.0463
4    C4      -28.9521  -12.6710   26.9399  C.ar  1 <0>         0.0035
5    C5      -29.9759  -11.7972   26.5838  C.2   1 <0>        -0.0159
6    C6      -26.7951  -13.5937   27.6239  C.ar  1 <0>        -0.0124
7    C7      -29.4466  -13.9558   26.7253  C.ar  1 <0>         0.0470
8    C8      -31.0437  -12.5992   26.1775  C.2   1 <0>         0.0343
9    C9      -31.4511   -8.3617   25.9320  C.2   1 <0>         0.3223
10   C10     -29.9944  -10.3183   26.5120  C.3   1 <0>         0.0005
11   C11     -32.3203  -12.0497   25.6847  C.3   1 <0>         0.0374
12   C12     -31.4528   -9.7776   26.3468  C.3   1 <0>         0.1101
13   C13     -24.9027  -18.8303   30.2174  C.3   1 <0>        -0.0653
14   C14     -24.2483  -17.4324   30.1166  C.3   1 <0>        -0.0559
15   C15     -25.1766  -16.3494   29.4644  C.3   1 <0>        -0.0532
16   C16     -25.5020  -15.0639   30.2989  C.3   1 <0>        -0.0500
17   C17     -25.2081  -13.6748   29.6449  C.3   1 <0>        -0.0167
18   C18     -25.3842  -13.4645   28.1088  C.3   1 <0>         0.1235
19   N1      -30.7095  -13.8980   26.2751  N.2   1 <0>        -0.3567
20   N2      -32.2121  -10.6048   25.3689  N.4   1 <0>        -0.2984
21   O1      -30.6473   -7.4792   26.5643  O.co2 1 <0>        -0.4795
22   O2      -32.3036   -7.9018   24.9888  O.co2 1 <0>        -0.2492
23   O3      -24.8064  -12.1856   27.8156  O.3   1 <0>        -0.3807
24   H1      -26.7054  -15.7040   27.3861  H     1 <0>         0.0622
25   H2      -28.9874  -16.0267   26.7116  H     1 <0>         0.0638
26   H3      -27.3141  -11.5223   27.5904  H     1 <0>         0.0628
27   H4      -29.5557   -9.9080   27.4264  H     1 <0>         0.0334
28   H5      -29.3674  -10.0132   25.6671  H     1 <0>         0.0334
29   H6      -32.6120  -12.5709   24.7726  H     1 <0>         0.0488
30   H7      -33.0943  -12.2132   26.4347  H     1 <0>         0.0488
31   H8      -31.9586   -9.8311   27.3149  H     1 <0>         0.0579
32   H9      -25.1892  -19.1740   29.2214  H     1 <0>         0.0230
33   H10     -25.7914  -18.7749   30.8489  H     1 <0>         0.0230
34   H11     -24.2058  -19.5545   30.6445  H     1 <0>         0.0230
35   H12     -23.9201  -17.1362   31.1198  H     1 <0>         0.0263
36   H13     -23.3498  -17.5379   29.4979  H     1 <0>         0.0263
37   H14     -26.1270  -16.8247   29.2196  H     1 <0>         0.0265
38   H15     -24.7291  -16.0629   28.5076  H     1 <0>         0.0265
39   H16     -26.5588  -15.0787   30.5749  H     1 <0>         0.0266
40   H17     -24.9417  -15.0928   31.2344  H     1 <0>         0.0266
41   H18     -24.1737  -13.4159   29.8817  H     1 <0>         0.0297
42   H19     -25.8426  -12.9416   30.1488  H     1 <0>         0.0297
43   H20     -24.7565  -14.1860   27.5774  H     1 <0>         0.0000
44   H21     -31.7327  -10.5225   24.4713  H     1 <0>         0.1231
45   H22     -33.1602  -10.2282   25.2681  H     1 <0>         0.0000
46   H23     -25.0020  -12.0138   26.8707  H     1 <0>         0.2108
@<TRIPOS>BOND
     1    1    2 ar
     2    1    6 ar
     3    2    7 ar
     4    3    4 ar
     5    3    6 ar
     6    4    5 1
     7    4    7 ar
     8    5    8 2
     9    5   10 1
    10    6   18 1
    11    7   19 1
    12    8   11 1
    13    8   19 1
    14    9   12 1
    15    9   21 1
    16    9   22 2
    17   10   12 1
    18   11   20 1
    19   12   20 1
    20   13   14 1
    21   14   15 1
    22   15   16 1
    23   16   17 1
    24   17   18 1
    25   18   23 1
    26    1   24 1
    27    2   25 1
    28    3   26 1
    29   10   27 1
    30   10   28 1
    31   11   29 1
    32   11   30 1
    33   12   31 1
    34   13   32 1
    35   13   33 1
    36   13   34 1
    37   14   35 1
    38   14   36 1
    39   15   37 1
    40   15   38 1
    41   16   39 1
    42   16   40 1
    43   17   41 1
    44   17   42 1
    45   18   43 1
    46   20   44 1
    47   20   45 1
    48   23   46 1
@<TRIPOS>PROPERTY_DATA
  Total_Score	| 10.9063
  Crash		| -2.2649
  Polar		| 7.3602

@<TRIPOS>MOLECULE
ligand_uncharged26_002
   46    48     0     0     0
SMALL
USER_CHARGES

@<TRIPOS>ATOM
1    C1      -27.0834  -14.5693   27.1289  C.ar  1 <0>        -0.0538
2    C2      -28.4443  -14.8485   26.8951  C.ar  1 <0>        -0.0374
3    C3      -27.5506  -12.1744   27.1901  C.ar  1 <0>        -0.0463
4    C4      -28.8939  -12.4620   26.8946  C.ar  1 <0>         0.0035
5    C5      -29.9861  -11.6459   26.6304  C.2   1 <0>        -0.0159
6    C6      -26.6156  -13.2343   27.2935  C.ar  1 <0>        -0.0124
7    C7      -29.3362  -13.7764   26.7613  C.ar  1 <0>         0.0470
8    C8      -31.0440  -12.5070   26.3467  C.2   1 <0>         0.0343
9    C9      -31.5927   -8.2932   25.9078  C.2   1 <0>         0.3223
10   C10     -30.0667  -10.1790   26.5061  C.3   1 <0>         0.0005
11   C11     -32.3748  -12.0186   25.9252  C.3   1 <0>         0.0374
12   C12     -31.5467   -9.6886   26.3910  C.3   1 <0>         0.1101
13   C13     -27.6351  -16.7065   29.7555  C.3   1 <0>        -0.0653
14   C14     -27.1703  -15.3654   30.3723  C.3   1 <0>        -0.0559
15   C15     -25.6148  -15.2432   30.4361  C.3   1 <0>        -0.0532
16   C16     -25.0396  -13.8688   29.9612  C.3   1 <0>        -0.0500
17   C17     -24.4201  -13.8376   28.5248  C.3   1 <0>        -0.0167
18   C18     -25.1502  -12.9753   27.4538  C.3   1 <0>         0.1235
19   N1      -30.6399  -13.7874   26.4377  N.2   1 <0>        -0.3567
20   N2      -32.3241  -10.5943   25.4966  N.4   1 <0>        -0.2984
21   O1      -30.7831   -7.3676   26.4704  O.co2 1 <0>        -0.4795
22   O2      -32.3877   -7.9209   24.8790  O.co2 1 <0>        -0.2492
23   O3      -24.8234  -11.6099   27.7316  O.3   1 <0>        -0.3807
24   H1      -26.4329  -15.3563   27.1775  H     1 <0>         0.0622
25   H2      -28.7664  -15.8114   26.7740  H     1 <0>         0.0638
26   H3      -27.2650  -11.1988   27.2791  H     1 <0>         0.0628
27   H4      -29.5986   -9.7233   27.3793  H     1 <0>         0.0334
28   H5      -29.4979   -9.8925   25.6175  H     1 <0>         0.0334
29   H6      -32.7257  -12.6131   25.0797  H     1 <0>         0.0488
30   H7      -33.0860  -12.1319   26.7457  H     1 <0>         0.0488
31   H8      -32.0069   -9.7045   27.3853  H     1 <0>         0.0579
32   H9      -27.1788  -17.5440   30.2873  H     1 <0>         0.0230
33   H10     -27.3470  -16.7530   28.7025  H     1 <0>         0.0230
34   H11     -28.7212  -16.7999   29.8264  H     1 <0>         0.0230
35   H12     -27.6049  -14.5565   29.7828  H     1 <0>         0.0263
36   H13     -27.5809  -15.2730   31.3848  H     1 <0>         0.0263
37   H14     -25.1523  -16.0566   29.8683  H     1 <0>         0.0265
38   H15     -25.3224  -15.4128   31.4799  H     1 <0>         0.0265
39   H16     -25.7983  -13.0865   30.0547  H     1 <0>         0.0266
40   H17     -24.2487  -13.6018   30.6678  H     1 <0>         0.0266
41   H18     -24.2992  -14.8518   28.1368  H     1 <0>         0.0297
42   H19     -23.4025  -13.4440   28.6120  H     1 <0>         0.0297
43   H20     -24.6833  -13.2020   26.4911  H     1 <0>         0.0000
44   H21     -31.8784  -10.5619   24.5752  H     1 <0>         0.1231
45   H22     -33.2850  -10.2461   25.4091  H     1 <0>         0.0000
46   H23     -25.1545  -11.0962   26.9665  H     1 <0>         0.2108
@<TRIPOS>BOND
     1    1    2 ar
     2    1    6 ar
     3    2    7 ar
     4    3    4 ar
     5    3    6 ar
     6    4    5 1
     7    4    7 ar
     8    5    8 2
     9    5   10 1
    10    6   18 1
    11    7   19 1
    12    8   11 1
    13    8   19 1
    14    9   12 1
    15    9   21 1
    16    9   22 2
    17   10   12 1
    18   11   20 1
    19   12   20 1
    20   13   14 1
    21   14   15 1
    22   15   16 1
    23   16   17 1
    24   17   18 1
    25   18   23 1
    26    1   24 1
    27    2   25 1
    28    3   26 1
    29   10   27 1
    30   10   28 1
    31   11   29 1
    32   11   30 1
    33   12   31 1
    34   13   32 1
    35   13   33 1
    36   13   34 1
    37   14   35 1
    38   14   36 1
    39   15   37 1
    40   15   38 1
    41   16   39 1
    42   16   40 1
    43   17   41 1
    44   17   42 1
    45   18   43 1
    46   20   44 1
    47   20   45 1
    48   23   46 1
@<TRIPOS>PROPERTY_DATA
  Total_Score	| 10.4236
  Crash		| -3.0835
  Polar		| 6.8232

@<TRIPOS>MOLECULE
ligand_uncharged31_000
   35    37     0     0     0
SMALL
USER_CHARGES

@<TRIPOS>ATOM
1    C1      -29.2175  -15.7009   26.6003  C.ar  1 <0>        -0.0360
2    C2      -28.2548  -15.6270   27.6356  C.ar  1 <0>        -0.0374
3    C3      -28.7060  -13.2506   27.9341  C.ar  1 <0>        -0.0299
4    C4      -29.6784  -13.3431   26.9270  C.ar  1 <0>         0.0050
5    C5      -30.5383  -12.3976   26.3850  C.2   1 <0>        -0.0158
6    C6      -29.9300  -14.5401   26.2570  C.ar  1 <0>         0.0471
7    C7      -27.9867  -14.4071   28.2970  C.ar  1 <0>         0.0484
8    C8      -31.2735  -13.0594   25.4008  C.2   1 <0>         0.0343
9    C9      -31.8280   -8.8559   25.9771  C.2   1 <0>         0.3223
10   C10     -30.6560  -10.9554   26.6921  C.3   1 <0>         0.0005
11   C11     -32.2915  -12.3677   24.5876  C.3   1 <0>         0.0374
12   C12     -31.9330  -10.3281   26.0556  C.3   1 <0>         0.1101
13   C13     -24.8327  -13.5723   27.5367  C.3   1 <0>         0.0736
14   N1      -30.8828  -14.3467   25.3285  N.2   1 <0>        -0.3567
15   N2      -27.0620  -14.3593   29.2739  N.pl3 1 <0>        -0.2209
16   N3      -32.2033  -10.8810   24.6991  N.4   1 <0>        -0.2984
17   O1      -31.2317   -8.1587   26.9718  O.co2 1 <0>        -0.4795
18   O2      -32.5897   -8.1465   25.1114  O.co2 1 <0>        -0.2492
19   O3      -25.9830  -11.8898   29.4724  O.2   1 <0>        -0.1555
20   O4      -24.6485  -13.8988   30.2276  O.2   1 <0>        -0.1555
21   S1      -25.6797  -13.4097   29.1168  S.o2  1 <0>         0.0403
22   H1      -29.3922  -16.5833   26.1071  H     1 <0>         0.0639
23   H2      -27.7327  -16.4771   27.8839  H     1 <0>         0.0637
24   H3      -28.5302  -12.3508   28.3990  H     1 <0>         0.0643
25   H4      -30.6909  -10.8259   27.7713  H     1 <0>         0.0334
26   H5      -29.7577  -10.4799   26.3024  H     1 <0>         0.0334
27   H6      -32.1559  -12.6323   23.5329  H     1 <0>         0.0488
28   H7      -33.2849  -12.6941   24.9043  H     1 <0>         0.0488
29   H8      -32.7982  -10.5643   26.6867  H     1 <0>         0.0579
30   H9      -23.9279  -12.9610   27.5401  H     1 <0>         0.0482
31   H10     -24.5654  -14.6224   27.3808  H     1 <0>         0.0482
32   H11     -25.4977  -13.2440   26.7429  H     1 <0>         0.0482
33   H12     -26.9945  -15.1315   29.8856  H     1 <0>         0.1733
34   H13     -31.4468  -10.5728   24.0892  H     1 <0>         0.1231
35   H14     -33.0768  -10.4891   24.3449  H     1 <0>         0.0000
@<TRIPOS>BOND
     1    1    2 ar
     2    1    6 ar
     3    2    7 ar
     4    3    4 ar
     5    3    7 ar
     6    4    5 1
     7    4    6 ar
     8    5    8 2
     9    5   10 1
    10    6   14 1
    11    7   15 1
    12    8   11 1
    13    8   14 1
    14    9   12 1
    15    9   17 1
    16    9   18 2
    17   10   12 1
    18   11   16 1
    19   12   16 1
    20   13   21 1
    21   15   21 1
    22   19   21 2
    23   20   21 2
    24    1   22 1
    25    2   23 1
    26    3   24 1
    27   10   25 1
    28   10   26 1
    29   11   27 1
    30   11   28 1
    31   12   29 1
    32   13   30 1
    33   13   31 1
    34   13   32 1
    35   15   33 1
    36   16   34 1
    37   16   35 1
@<TRIPOS>PROPERTY_DATA
  Total_Score	| 8.8469
  Crash		| -0.8477
  Polar		| 4.7209

@<TRIPOS>MOLECULE
ligand_uncharged31_001
   35    37     0     0     0
SMALL
USER_CHARGES

@<TRIPOS>ATOM
1    C1      -29.1469  -15.6501   26.3561  C.ar  1 <0>        -0.0360
2    C2      -28.0300  -15.6212   27.2231  C.ar  1 <0>        -0.0374
3    C3      -28.3889  -13.2296   27.6366  C.ar  1 <0>        -0.0299
4    C4      -29.4952  -13.2741   26.7710  C.ar  1 <0>         0.0050
5    C5      -30.4167  -12.3163   26.3529  C.2   1 <0>        -0.0158
6    C6      -29.8654  -14.4640   26.1406  C.ar  1 <0>         0.0471
7    C7      -27.6592  -14.4161   27.8851  C.ar  1 <0>         0.0484
8    C8      -31.2650  -12.9642   25.4580  C.2   1 <0>         0.0343
9    C9      -31.7171   -8.7489   25.9938  C.2   1 <0>         0.3223
10   C10     -30.5016  -10.8689   26.6493  C.3   1 <0>         0.0005
11   C11     -32.3827  -12.2952   24.7825  C.3   1 <0>         0.0374
12   C12     -31.8348  -10.2275   26.1443  C.3   1 <0>         0.1101
13   C13     -26.5740  -17.0168   30.0543  C.3   1 <0>         0.0736
14   N1      -30.9140  -14.2565   25.3290  N.2   1 <0>        -0.3567
15   N2      -26.5751  -14.3703   28.6953  N.pl3 1 <0>        -0.2209
16   N3      -32.2746  -10.8182   24.8521  N.4   1 <0>        -0.2984
17   O1      -32.4925   -8.0862   25.1114  O.co2 1 <0>        -0.4795
18   O2      -31.1121   -8.0109   26.9460  O.co2 1 <0>        -0.2492
19   O3      -25.0853  -14.8960   30.7827  O.2   1 <0>        -0.1555
20   O4      -27.6062  -14.6240   31.1320  O.2   1 <0>        -0.1555
21   S1      -26.5092  -15.2211   30.1423  S.o2  1 <0>         0.0403
22   H1      -29.4094  -16.5154   25.8822  H     1 <0>         0.0639
23   H2      -27.4658  -16.4616   27.3282  H     1 <0>         0.0637
24   H3      -28.1205  -12.3444   28.0807  H     1 <0>         0.0643
25   H4      -30.4108  -10.7214   27.7321  H     1 <0>         0.0334
26   H5      -29.6485  -10.3947   26.1579  H     1 <0>         0.0334
27   H6      -32.3763  -12.5819   23.7266  H     1 <0>         0.0488
28   H7      -33.3220  -12.6248   25.2354  H     1 <0>         0.0488
29   H8      -32.6199  -10.4159   26.8842  H     1 <0>         0.0579
30   H9      -26.2614  -17.4522   30.9987  H     1 <0>         0.0482
31   H10     -27.5950  -17.3289   29.8194  H     1 <0>         0.0482
32   H11     -25.9005  -17.3605   29.2667  H     1 <0>         0.0482
33   H12     -26.0331  -13.5527   28.6474  H     1 <0>         0.1733
34   H13     -31.5993  -10.5243   24.1532  H     1 <0>         0.1231
35   H14     -33.1869  -10.4327   24.6052  H     1 <0>         0.0000
@<TRIPOS>BOND
     1    1    2 ar
     2    1    6 ar
     3    2    7 ar
     4    3    4 ar
     5    3    7 ar
     6    4    5 1
     7    4    6 ar
     8    5    8 2
     9    5   10 1
    10    6   14 1
    11    7   15 1
    12    8   11 1
    13    8   14 1
    14    9   12 1
    15    9   17 1
    16    9   18 2
    17   10   12 1
    18   11   16 1
    19   12   16 1
    20   13   21 1
    21   15   21 1
    22   19   21 2
    23   20   21 2
    24    1   22 1
    25    2   23 1
    26    3   24 1
    27   10   25 1
    28   10   26 1
    29   11   27 1
    30   11   28 1
    31   12   29 1
    32   13   30 1
    33   13   31 1
    34   13   32 1
    35   15   33 1
    36   16   34 1
    37   16   35 1
@<TRIPOS>PROPERTY_DATA
  Total_Score	| 8.6150
  Crash		| -1.2505
  Polar		| 5.8626

@<TRIPOS>MOLECULE
ligand_uncharged31_002
   35    37     0     0     0
SMALL
USER_CHARGES

@<TRIPOS>ATOM
1    C1      -29.1806  -15.8620   26.4792  C.ar  1 <0>        -0.0360
2    C2      -28.1617  -15.8000   27.4553  C.ar  1 <0>        -0.0374
3    C3      -28.6403  -13.4390   27.8429  C.ar  1 <0>        -0.0299
4    C4      -29.6408  -13.5082   26.8618  C.ar  1 <0>         0.0050
5    C5      -30.5153  -12.5511   26.3680  C.2   1 <0>        -0.0158
6    C6      -29.9062  -14.6960   26.1789  C.ar  1 <0>         0.0471
7    C7      -27.8641  -14.5854   28.1200  C.ar  1 <0>         0.0484
8    C8      -31.2797  -13.1946   25.3983  C.2   1 <0>         0.0343
9    C9      -31.8228   -8.9839   26.0680  C.2   1 <0>         0.3223
10   C10     -30.6016  -11.1074   26.6747  C.3   1 <0>         0.0005
11   C11     -32.3284  -12.4923   24.6400  C.3   1 <0>         0.0374
12   C12     -31.9148  -10.4650   26.1185  C.3   1 <0>         0.1101
13   C13     -25.8262  -11.8061   28.7355  C.3   1 <0>         0.0736
14   N1      -30.8911  -14.4830   25.2855  N.2   1 <0>        -0.3567
15   N2      -26.8849  -14.5667   29.0521  N.pl3 1 <0>        -0.2209
16   N3      -32.2433  -11.0126   24.7740  N.4   1 <0>        -0.2984
17   O1      -32.4053   -8.2605   25.0827  O.co2 1 <0>        -0.4795
18   O2      -31.2615   -8.3066   27.0926  O.co2 1 <0>        -0.2492
19   O3      -24.7269  -13.7287   30.2652  O.2   1 <0>        -0.1555
20   O4      -24.5290  -14.1216   27.7846  O.2   1 <0>        -0.1555
21   S1      -25.5256  -13.5760   28.8984  S.o2  1 <0>         0.0403
22   H1      -29.3757  -16.7403   25.9882  H     1 <0>         0.0639
23   H2      -27.6201  -16.6424   27.6615  H     1 <0>         0.0637
24   H3      -28.5091  -12.5711   28.3634  H     1 <0>         0.0643
25   H4      -30.5623  -10.9701   27.7570  H     1 <0>         0.0334
26   H5      -29.7245  -10.6264   26.2324  H     1 <0>         0.0334
27   H6      -32.2203  -12.7354   23.5800  H     1 <0>         0.0488
28   H7      -33.3102  -12.8298   24.9765  H     1 <0>         0.0488
29   H8      -32.7393  -10.7149   26.7980  H     1 <0>         0.0579
30   H9      -24.8762  -11.2664   28.8036  H     1 <0>         0.0482
31   H10     -26.2761  -11.5936   27.7707  H     1 <0>         0.0482
32   H11     -26.4767  -11.4660   29.5399  H     1 <0>         0.0482
33   H12     -26.7681  -15.3742   29.5927  H     1 <0>         0.1733
34   H13     -31.5133  -10.6916   24.1428  H     1 <0>         0.1231
35   H14     -33.1337  -10.6172   24.4675  H     1 <0>         0.0000
@<TRIPOS>BOND
     1    1    2 ar
     2    1    6 ar
     3    2    7 ar
     4    3    4 ar
     5    3    7 ar
     6    4    5 1
     7    4    6 ar
     8    5    8 2
     9    5   10 1
    10    6   14 1
    11    7   15 1
    12    8   11 1
    13    8   14 1
    14    9   12 1
    15    9   17 1
    16    9   18 2
    17   10   12 1
    18   11   16 1
    19   12   16 1
    20   13   21 1
    21   15   21 1
    22   19   21 2
    23   20   21 2
    24    1   22 1
    25    2   23 1
    26    3   24 1
    27   10   25 1
    28   10   26 1
    29   11   27 1
    30   11   28 1
    31   12   29 1
    32   13   30 1
    33   13   31 1
    34   13   32 1
    35   15   33 1
    36   16   34 1
    37   16   35 1
@<TRIPOS>PROPERTY_DATA
  Total_Score	| 8.5501
  Crash		| -1.1619
  Polar		| 5.2757

@<TRIPOS>MOLECULE
ligand_uncharged43_000
   46    49     0     0     0
SMALL
USER_CHARGES

@<TRIPOS>ATOM
1    C1      -29.3404  -15.9357   26.7180  C.ar  1 <0>        -0.0563
2    C2      -30.3619  -15.7578   25.7587  C.ar  1 <0>        -0.0375
3    C3      -29.4924  -13.5858   27.3500  C.ar  1 <0>        -0.0489
4    C4      -30.4702  -13.4185   26.3629  C.ar  1 <0>         0.0035
5    C5      -28.8384  -14.8424   27.4892  C.ar  1 <0>        -0.0436
6    C6      -31.1486  -12.3383   25.9114  C.2   1 <0>        -0.0159
7    C7      -30.8977  -14.4776   25.5722  C.ar  1 <0>         0.0470
8    C8      -31.9595  -12.7893   24.9346  C.cat 1 <0>         0.0343
9    C9      -31.9824   -8.6417   25.9020  C.2   1 <0>         0.3223
10   C10     -31.0148  -10.9535   26.3212  C.3   1 <0>         0.0005
11   C11     -32.9072  -11.9342   24.2594  C.3   1 <0>         0.0374
12   C12     -25.7568  -13.2290   29.1291  C.3   1 <0>        -0.0502
13   C13     -26.5158  -13.9119   27.9578  C.3   1 <0>        -0.0461
14   C14     -27.0790  -16.3387   28.6796  C.3   1 <0>        -0.0439
15   C15     -24.7868  -14.1646   29.8819  C.3   1 <0>        -0.0268
16   C16     -25.7739  -16.5280   29.5067  C.3   1 <0>        -0.0263
17   C17     -27.6484  -14.9009   28.4191  C.3   1 <0>        -0.0157
18   C18     -31.7555   -9.9880   25.3453  C.3   1 <0>         0.1101
19   C19     -25.4330  -15.4219   30.5393  C.3   1 <0>         0.0553
20   N1      -31.7752  -14.0437   24.7013  N.2   1 <0>        -0.3567
21   N2      -33.0388  -10.6065   24.9179  N.3   1 <0>        -0.2984
22   O1      -31.2437   -8.1761   26.9383  O.co2 1 <0>        -0.4795
23   O2      -32.6082   -7.7295   25.1326  O.co2 1 <0>        -0.2492
24   O3      -24.5112  -15.9851   31.4719  O.3   1 <0>        -0.3918
25   H1      -28.9453  -16.8763   26.8285  H     1 <0>         0.0621
26   H2      -30.6885  -16.5516   25.2069  H     1 <0>         0.0638
27   H3      -29.2128  -12.7720   27.9088  H     1 <0>         0.0627
28   H4      -31.4190  -10.8692   27.3322  H     1 <0>         0.0334
29   H5      -29.9532  -10.6926   26.3471  H     1 <0>         0.0334
30   H6      -32.5808  -11.7931   23.2278  H     1 <0>         0.0488
31   H7      -33.8881  -12.4111   24.2620  H     1 <0>         0.0488
32   H8      -25.1663  -12.4001   28.7253  H     1 <0>         0.0266
33   H9      -26.4675  -12.7970   29.8404  H     1 <0>         0.0266
34   H10     -26.9175  -13.0930   27.3546  H     1 <0>         0.0271
35   H11     -25.8052  -14.4307   27.3081  H     1 <0>         0.0271
36   H12     -26.8834  -16.8217   27.7163  H     1 <0>         0.0272
37   H13     -27.8742  -16.9122   29.1696  H     1 <0>         0.0272
38   H14     -24.0035  -14.4679   29.1812  H     1 <0>         0.0290
39   H15     -24.3007  -13.5825   30.6655  H     1 <0>         0.0290
40   H16     -25.8555  -17.4913   30.0235  H     1 <0>         0.0290
41   H17     -24.9292  -16.6233   28.8153  H     1 <0>         0.0290
42   H18     -28.0285  -14.5498   29.3870  H     1 <0>         0.0349
43   H19     -31.1334   -9.8527   24.4576  H     1 <0>         0.0579
44   H20     -26.3336  -15.1486   31.0973  H     1 <0>         0.0593
45   H21     -33.5807   -9.9903   24.3081  H     1 <0>         0.1231
46   H22     -24.3900  -15.2903   32.1521  H     1 <0>         0.2098
@<TRIPOS>BOND
     1    1    2 ar
     2    1    5 ar
     3    2    7 ar
     4    3    4 ar
     5    3    5 ar
     6    4    6 2
     7    4    7 ar
     8    5   17 1
     9    6    8 1
    10    6   10 1
    11    7   20 2
    12    8   11 1
    13    8   20 1
    14    9   18 1
    15    9   22 1
    16    9   23 2
    17   10   18 1
    18   11   21 1
    19   12   13 1
    20   12   15 1
    21   13   17 1
    22   14   16 1
    23   14   17 1
    24   15   19 1
    25   16   19 1
    26   18   21 1
    27   19   24 1
    28    1   25 1
    29    2   26 1
    30    3   27 1
    31   10   28 1
    32   10   29 1
    33   11   30 1
    34   11   31 1
    35   12   32 1
    36   12   33 1
    37   13   34 1
    38   13   35 1
    39   14   36 1
    40   14   37 1
    41   15   38 1
    42   15   39 1
    43   16   40 1
    44   16   41 1
    45   17   42 1
    46   18   43 1
    47   19   44 1
    48   21   45 1
    49   24   46 1
@<TRIPOS>PROPERTY_DATA
  Total_Score	| 8.2362
  Crash		| -4.0510
  Polar		| 3.7714

@<TRIPOS>MOLECULE
ligand_uncharged43_001
   46    49     0     0     0
SMALL
USER_CHARGES

@<TRIPOS>ATOM
1    C1      -29.4709  -16.2439   26.7168  C.ar  1 <0>        -0.0563
2    C2      -30.4697  -15.9864   25.7632  C.ar  1 <0>        -0.0375
3    C3      -29.2812  -13.8635   27.2051  C.ar  1 <0>        -0.0489
4    C4      -30.2933  -13.6255   26.2649  C.ar  1 <0>         0.0035
5    C5      -28.8529  -15.1961   27.4480  C.ar  1 <0>        -0.0436
6    C6      -30.9122  -12.4959   25.8277  C.2   1 <0>        -0.0159
7    C7      -30.8724  -14.6603   25.5422  C.ar  1 <0>         0.0470
8    C8      -31.8320  -12.8934   24.9195  C.cat 1 <0>         0.0343
9    C9      -31.7779   -8.7949   26.0337  C.2   1 <0>         0.3223
10   C10     -30.7398  -11.1246   26.2728  C.3   1 <0>         0.0005
11   C11     -32.8475  -12.0089   24.3809  C.3   1 <0>         0.0374
12   C12     -26.9176  -15.2407   30.8464  C.3   1 <0>        -0.0502
13   C13     -27.5140  -14.5584   29.5850  C.3   1 <0>        -0.0461
14   C14     -26.4202  -15.7343   27.5140  C.3   1 <0>        -0.0439
15   C15     -25.4325  -15.6576   30.7566  C.3   1 <0>        -0.0268
16   C16     -25.0487  -15.9656   28.2190  C.3   1 <0>        -0.0263
17   C17     -27.7146  -15.5291   28.3716  C.3   1 <0>        -0.0157
18   C18     -31.5712  -10.1181   25.4129  C.3   1 <0>         0.1101
19   C19     -25.0991  -16.6601   29.6054  C.3   1 <0>         0.0553
20   N1      -31.7591  -14.1686   24.7108  N.2   1 <0>        -0.3567
21   N2      -32.8954  -10.7241   25.1112  N.3   1 <0>        -0.2984
22   O1      -31.2441   -8.4459   27.2252  O.co2 1 <0>        -0.4795
23   O2      -32.4254   -7.8461   25.3244  O.co2 1 <0>        -0.2492
24   O3      -23.8409  -17.2707   29.8769  O.3   1 <0>        -0.3918
25   H1      -29.1830  -17.2065   26.8549  H     1 <0>         0.0621
26   H2      -30.9008  -16.7549   25.2334  H     1 <0>         0.0638
27   H3      -28.8641  -13.0743   27.6912  H     1 <0>         0.0627
28   H4      -31.0554  -11.0784   27.3216  H     1 <0>         0.0334
29   H5      -29.6796  -10.8623   26.2221  H     1 <0>         0.0334
30   H6      -32.6366  -11.8208   23.3330  H     1 <0>         0.0488
31   H7      -33.8229  -12.4794   24.4690  H     1 <0>         0.0488
32   H8      -27.0155  -14.5555   31.6824  H     1 <0>         0.0266
33   H9      -27.5085  -16.1169   31.0761  H     1 <0>         0.0266
34   H10     -28.4900  -14.1675   29.8881  H     1 <0>         0.0271
35   H11     -26.9006  -13.6945   29.2957  H     1 <0>         0.0271
36   H12     -26.2925  -14.8562   26.8662  H     1 <0>         0.0272
37   H13     -26.5920  -16.5907   26.8635  H     1 <0>         0.0272
38   H14     -24.8002  -14.7640   30.6723  H     1 <0>         0.0290
39   H15     -25.1646  -16.1332   31.7124  H     1 <0>         0.0290
40   H16     -24.4313  -16.5629   27.5494  H     1 <0>         0.0290
41   H17     -24.5317  -14.9984   28.3221  H     1 <0>         0.0290
42   H18     -27.9598  -16.5012   28.8071  H     1 <0>         0.0349
43   H19     -31.0421   -9.9499   24.4782  H     1 <0>         0.0579
44   H20     -25.8395  -17.4647   29.5998  H     1 <0>         0.0593
45   H21     -33.5435  -10.0875   24.6456  H     1 <0>         0.1231
46   H22     -23.7466  -17.9733   29.2076  H     1 <0>         0.2098
@<TRIPOS>BOND
     1    1    2 ar
     2    1    5 ar
     3    2    7 ar
     4    3    4 ar
     5    3    5 ar
     6    4    6 2
     7    4    7 ar
     8    5   17 1
     9    6    8 1
    10    6   10 1
    11    7   20 2
    12    8   11 1
    13    8   20 1
    14    9   18 1
    15    9   22 1
    16    9   23 2
    17   10   18 1
    18   11   21 1
    19   12   13 1
    20   12   15 1
    21   13   17 1
    22   14   16 1
    23   14   17 1
    24   15   19 1
    25   16   19 1
    26   18   21 1
    27   19   24 1
    28    1   25 1
    29    2   26 1
    30    3   27 1
    31   10   28 1
    32   10   29 1
    33   11   30 1
    34   11   31 1
    35   12   32 1
    36   12   33 1
    37   13   34 1
    38   13   35 1
    39   14   36 1
    40   14   37 1
    41   15   38 1
    42   15   39 1
    43   16   40 1
    44   16   41 1
    45   17   42 1
    46   18   43 1
    47   19   44 1
    48   21   45 1
    49   24   46 1
@<TRIPOS>PROPERTY_DATA
  Total_Score	| 7.3525
  Crash		| -4.0401
  Polar		| 3.7705

@<TRIPOS>MOLECULE
ligand_uncharged43_002
   46    49     0     0     0
SMALL
USER_CHARGES

@<TRIPOS>ATOM
1    C1      -29.3965  -16.2589   26.7154  C.ar  1 <0>        -0.0563
2    C2      -30.4055  -16.0220   25.7626  C.ar  1 <0>        -0.0375
3    C3      -29.2436  -13.8717   27.2142  C.ar  1 <0>        -0.0489
4    C4      -30.2696  -13.6482   26.2757  C.ar  1 <0>         0.0035
5    C5      -28.7961  -15.2006   27.4542  C.ar  1 <0>        -0.0436
6    C6      -30.8992  -12.5256   25.8409  C.2   1 <0>        -0.0159
7    C7      -30.8242  -14.6996   25.5522  C.ar  1 <0>         0.0470
8    C8      -31.7815  -12.9406   24.9139  C.cat 1 <0>         0.0343
9    C9      -31.6625   -8.8078   25.8728  C.2   1 <0>         0.3223
10   C10     -30.7485  -11.1493   26.2905  C.3   1 <0>         0.0005
11   C11     -32.6656  -12.0452   24.2078  C.3   1 <0>         0.0374
12   C12     -26.9230  -15.1806   30.8855  C.3   1 <0>        -0.0502
13   C13     -27.4922  -14.5335   29.5968  C.3   1 <0>        -0.0461
14   C14     -26.3687  -15.7456   27.5674  C.3   1 <0>        -0.0439
15   C15     -25.4419  -15.6188   30.8282  C.3   1 <0>        -0.0268
16   C16     -25.0207  -15.9961   28.3013  C.3   1 <0>        -0.0263
17   C17     -27.6756  -15.5299   28.4022  C.3   1 <0>        -0.0157
18   C18     -31.3913  -10.1364   25.2907  C.3   1 <0>         0.1101
19   C19     -25.1012  -16.6464   29.7110  C.3   1 <0>         0.0553
20   N1      -31.7076  -14.2156   24.7184  N.2   1 <0>        -0.3567
21   N2      -32.6673  -10.6665   24.7424  N.3   1 <0>        -0.2984
22   O1      -32.2960   -7.8886   25.1118  O.co2 1 <0>        -0.4795
23   O2      -30.9589   -8.3551   26.9372  O.co2 1 <0>        -0.2492
24   O3      -23.8302  -17.2322   30.0041  O.3   1 <0>        -0.3918
25   H1      -29.0927  -17.2235   26.8642  H     1 <0>         0.0621
26   H2      -30.8230  -16.7995   25.2466  H     1 <0>         0.0638
27   H3      -28.8299  -13.0704   27.6945  H     1 <0>         0.0627
28   H4      -31.2256  -11.0654   27.2695  H     1 <0>         0.0334
29   H5      -29.6864  -10.9106   26.4063  H     1 <0>         0.0334
30   H6      -32.3658  -12.0161   23.1594  H     1 <0>         0.0488
31   H7      -33.6877  -12.4193   24.2808  H     1 <0>         0.0488
32   H8      -27.0154  -14.4583   31.6975  H     1 <0>         0.0266
33   H9      -27.5421  -16.0375   31.1512  H     1 <0>         0.0266
34   H10     -28.4664  -14.1300   29.8806  H     1 <0>         0.0271
35   H11     -26.8576  -13.6960   29.2985  H     1 <0>         0.0271
36   H12     -26.2190  -14.8656   26.9365  H     1 <0>         0.0272
37   H13     -26.5324  -16.5950   26.8938  H     1 <0>         0.0272
38   H14     -24.8117  -14.7315   30.7210  H     1 <0>         0.0290
39   H15     -25.1975  -16.0624   31.7970  H     1 <0>         0.0290
40   H16     -24.4044  -16.6321   27.6571  H     1 <0>         0.0290
41   H17     -24.4830  -15.0483   28.3806  H     1 <0>         0.0290
42   H18     -27.9464  -16.4915   28.8512  H     1 <0>         0.0349
43   H19     -30.6972   -9.9858   24.4582  H     1 <0>         0.0579
44   H20     -25.8313  -17.4614   29.7105  H     1 <0>         0.0593
45   H21     -33.0133  -10.0526   24.0041  H     1 <0>         0.1231
46   H22     -23.9269  -17.6439   30.8897  H     1 <0>         0.2098
@<TRIPOS>BOND
     1    1    2 ar
     2    1    5 ar
     3    2    7 ar
     4    3    4 ar
     5    3    5 ar
     6    4    6 2
     7    4    7 ar
     8    5   17 1
     9    6    8 1
    10    6   10 1
    11    7   20 2
    12    8   11 1
    13    8   20 1
    14    9   18 1
    15    9   22 1
    16    9   23 2
    17   10   18 1
    18   11   21 1
    19   12   13 1
    20   12   15 1
    21   13   17 1
    22   14   16 1
    23   14   17 1
    24   15   19 1
    25   16   19 1
    26   18   21 1
    27   19   24 1
    28    1   25 1
    29    2   26 1
    30    3   27 1
    31   10   28 1
    32   10   29 1
    33   11   30 1
    34   11   31 1
    35   12   32 1
    36   12   33 1
    37   13   34 1
    38   13   35 1
    39   14   36 1
    40   14   37 1
    41   15   38 1
    42   15   39 1
    43   16   40 1
    44   16   41 1
    45   17   42 1
    46   18   43 1
    47   19   44 1
    48   21   45 1
    49   24   46 1
@<TRIPOS>PROPERTY_DATA
  Total_Score	| 7.0503
  Crash		| -4.7199
  Polar		| 3.9053

@<TRIPOS>MOLECULE
ligand_uncharged49_000
   54    57     0     0     0
SMALL
USER_CHARGES

@<TRIPOS>ATOM
1    C1      -26.7337  -10.7866   28.1051  C.ar  1 <0>        -0.0563
2    C2      -27.4279   -9.6348   27.6849  C.ar  1 <0>        -0.0375
3    C3      -28.5440  -12.2078   27.2747  C.ar  1 <0>        -0.0489
4    C4      -29.2267  -11.0562   26.8734  C.ar  1 <0>         0.0035
5    C5      -27.2906  -12.0819   27.9279  C.ar  1 <0>        -0.0436
6    C6      -30.4736  -10.8713   26.2997  C.2   1 <0>        -0.0159
7    C7      -28.6908   -9.7838   27.0806  C.ar  1 <0>         0.0470
8    C8      -30.6371   -9.4904   26.1748  C.2   1 <0>         0.0343
9    C9      -34.0222  -12.0169   25.5670  C.2   1 <0>         0.3223
10   C10     -31.5308  -11.8509   25.9660  C.3   1 <0>         0.0005
11   C11     -31.8897   -8.8804   25.6884  C.3   1 <0>         0.0374
12   C12     -27.2178  -15.2145   30.2510  C.3   1 <0>        -0.0511
13   C13     -27.4336  -13.7613   29.7512  C.3   1 <0>        -0.0462
14   C14     -26.3778  -14.4036   27.4244  C.3   1 <0>        -0.0447
15   C15     -25.7569  -15.7516   30.2465  C.3   1 <0>        -0.0359
16   C16     -25.1745  -15.3496   27.7099  C.3   1 <0>        -0.0354
17   C17     -26.6210  -13.2936   28.4952  C.3   1 <0>        -0.0158
18   C18     -32.9219  -11.1524   26.0342  C.3   1 <0>         0.1101
19   C19     -25.3369  -16.3773   28.8746  C.3   1 <0>         0.0285
20   C20     -23.6529  -17.9787   31.7398  C.3   1 <0>         0.0705
21   N1      -29.5604   -8.8492   26.6675  N.2   1 <0>        -0.3567
22   N2      -24.0850  -17.0902   28.9755  N.pl3 1 <0>        -0.1917
23   N3      -32.8746   -9.8987   25.2302  N.4   1 <0>        -0.2984
24   O1      -35.1037  -12.2524   26.3418  O.co2 1 <0>        -0.4795
25   O2      -34.0400  -12.4684   24.2928  O.co2 1 <0>        -0.2492
26   O3      -22.3763  -18.9800   29.5229  O.2   1 <0>        -0.1585
27   O4      -24.8219  -19.5905   29.7103  O.2   1 <0>        -0.1585
28   S1      -23.7892  -18.4105   29.9896  S.o2  1 <0>         0.0268
29   H1      -25.8335  -10.6701   28.5688  H     1 <0>         0.0621
30   H2      -27.0343   -8.7034   27.8349  H     1 <0>         0.0638
31   H3      -28.9755  -13.1241   27.1326  H     1 <0>         0.0627
32   H4      -31.3411  -12.2299   24.9608  H     1 <0>         0.0334
33   H5      -31.4995  -12.6872   26.6657  H     1 <0>         0.0334
34   H6      -32.3334   -8.2912   26.4897  H     1 <0>         0.0488
35   H7      -31.6688   -8.2155   24.8527  H     1 <0>         0.0488
36   H8      -27.5776  -15.2475   31.2843  H     1 <0>         0.0266
37   H9      -27.8711  -15.8946   29.6795  H     1 <0>         0.0266
38   H10     -28.5159  -13.6614   29.5876  H     1 <0>         0.0271
39   H11     -27.1789  -13.0897   30.5767  H     1 <0>         0.0271
40   H12     -26.1544  -13.9194   26.4729  H     1 <0>         0.0272
41   H13     -27.2796  -15.0026   27.2847  H     1 <0>         0.0272
42   H14     -25.0589  -14.9469   30.5178  H     1 <0>         0.0281
43   H15     -25.7017  -16.5463   30.9950  H     1 <0>         0.0281
44   H16     -24.9722  -15.9208   26.7919  H     1 <0>         0.0281
45   H17     -24.2882  -14.7360   27.9038  H     1 <0>         0.0281
46   H18     -25.6337  -13.0024   28.8696  H     1 <0>         0.0349
47   H19     -33.1253  -10.8860   27.0778  H     1 <0>         0.0579
48   H20     -26.0942  -17.1138   28.5722  H     1 <0>         0.0477
49   H21     -22.8201  -18.5272   32.2132  H     1 <0>         0.0479
50   H22     -23.4421  -16.9086   31.8107  H     1 <0>         0.0479
51   H23     -24.6113  -18.1776   32.2394  H     1 <0>         0.0479
52   H24     -23.3688  -16.8547   28.3541  H     1 <0>         0.1479
53   H25     -33.8106   -9.4844   25.2174  H     1 <0>         0.1231
54   H26     -32.6289  -10.1595   24.2697  H     1 <0>         0.0000
@<TRIPOS>BOND
     1    1    2 ar
     2    1    5 ar
     3    2    7 ar
     4    3    4 ar
     5    3    5 ar
     6    4    6 1
     7    4    7 ar
     8    5   17 1
     9    6    8 2
    10    6   10 1
    11    7   21 1
    12    8   11 1
    13    8   21 1
    14    9   18 1
    15    9   24 1
    16    9   25 2
    17   10   18 1
    18   11   23 1
    19   12   13 1
    20   12   15 1
    21   13   17 1
    22   14   16 1
    23   14   17 1
    24   15   19 1
    25   16   19 1
    26   18   23 1
    27   19   22 1
    28   20   28 1
    29   22   28 1
    30   26   28 2
    31   27   28 2
    32    1   29 1
    33    2   30 1
    34    3   31 1
    35   10   32 1
    36   10   33 1
    37   11   34 1
    38   11   35 1
    39   12   36 1
    40   12   37 1
    41   13   38 1
    42   13   39 1
    43   14   40 1
    44   14   41 1
    45   15   42 1
    46   15   43 1
    47   16   44 1
    48   16   45 1
    49   17   46 1
    50   18   47 1
    51   19   48 1
    52   20   49 1
    53   20   50 1
    54   20   51 1
    55   22   52 1
    56   23   53 1
    57   23   54 1
@<TRIPOS>PROPERTY_DATA
  Total_Score	| 7.9041
  Crash		| -4.8682
  Polar		| 2.9180

@<TRIPOS>MOLECULE
ligand_uncharged49_001
   54    57     0     0     0
SMALL
USER_CHARGES

@<TRIPOS>ATOM
1    C1      -26.7607  -11.0494   28.4440  C.ar  1 <0>        -0.0563
2    C2      -27.4906   -9.9121   28.0532  C.ar  1 <0>        -0.0375
3    C3      -28.4825  -12.5097   27.5083  C.ar  1 <0>        -0.0489
4    C4      -29.1897  -11.3690   27.1107  C.ar  1 <0>         0.0035
5    C5      -27.2438  -12.3632   28.1892  C.ar  1 <0>        -0.0436
6    C6      -30.3979  -11.2130   26.4575  C.2   1 <0>        -0.0159
7    C7      -28.7179  -10.0850   27.3922  C.ar  1 <0>         0.0470
8    C8      -30.6102   -9.8399   26.3459  C.2   1 <0>         0.0343
9    C9      -33.5508  -12.5063   24.7419  C.2   1 <0>         0.3223
10   C10     -31.3117  -12.2298   25.9058  C.3   1 <0>         0.0005
11   C11     -31.7988   -9.2710   25.6813  C.3   1 <0>         0.0374
12   C12     -26.9558  -15.4512   30.5794  C.3   1 <0>        -0.0511
13   C13     -27.3135  -14.0641   29.9893  C.3   1 <0>        -0.0462
14   C14     -26.2881  -14.6818   27.6537  C.3   1 <0>        -0.0447
15   C15     -25.4756  -15.9039   30.4622  C.3   1 <0>        -0.0359
16   C16     -25.0431  -15.5746   27.9031  C.3   1 <0>        -0.0354
17   C17     -26.5359  -13.5719   28.7280  C.3   1 <0>        -0.0158
18   C18     -32.7156  -11.6290   25.5949  C.3   1 <0>         0.1101
19   C19     -25.1055  -16.5774   29.0986  C.3   1 <0>         0.0285
20   C20     -21.9196  -19.3390   29.7367  C.3   1 <0>         0.0705
21   N1      -29.6036   -9.1754   26.9472  N.2   1 <0>        -0.3567
22   N2      -23.8454  -17.2701   29.1568  N.pl3 1 <0>        -0.1917
23   N3      -32.5994  -10.2858   24.9489  N.4   1 <0>        -0.2984
24   O1      -34.8961  -12.3649   24.7510  O.co2 1 <0>        -0.4795
25   O2      -33.0488  -13.6125   24.1507  O.co2 1 <0>        -0.2492
26   O3      -24.6140  -19.7357   30.0656  O.2   1 <0>        -0.1585
27   O4      -23.3436  -18.1261   31.6721  O.2   1 <0>        -0.1585
28   S1      -23.5107  -18.5910   30.1613  S.o2  1 <0>         0.0268
29   H1      -25.8833  -10.9185   28.9559  H     1 <0>         0.0621
30   H2      -27.1432   -8.9749   28.2585  H     1 <0>         0.0638
31   H3      -28.8811  -13.4349   27.3324  H     1 <0>         0.0627
32   H4      -30.8402  -12.6266   25.0009  H     1 <0>         0.0334
33   H5      -31.4259  -13.0494   26.6229  H     1 <0>         0.0334
34   H6      -32.4238   -8.7844   26.4312  H     1 <0>         0.0488
35   H7      -31.4754   -8.5156   24.9595  H     1 <0>         0.0488
36   H8      -27.2165  -15.4159   31.6426  H     1 <0>         0.0266
37   H9      -27.5994  -16.2135   30.1246  H     1 <0>         0.0266
38   H10     -28.3915  -14.0820   29.7913  H     1 <0>         0.0271
39   H11     -27.1619  -13.3132   30.7658  H     1 <0>         0.0271
40   H12     -26.1257  -14.1959   26.6878  H     1 <0>         0.0272
41   H13     -27.1726  -15.3192   27.5490  H     1 <0>         0.0272
42   H14     -24.8073  -15.0644   30.6759  H     1 <0>         0.0281
43   H15     -25.3342  -16.6334   31.2585  H     1 <0>         0.0281
44   H16     -24.8697  -16.1637   26.9952  H     1 <0>         0.0281
45   H17     -24.1709  -14.9268   28.0297  H     1 <0>         0.0281
46   H18     -25.5486  -13.2548   29.0786  H     1 <0>         0.0349
47   H19     -33.2461  -11.4942   26.5438  H     1 <0>         0.0579
48   H20     -25.8664  -17.3279   28.8670  H     1 <0>         0.0477
49   H21     -21.5943  -19.9718   30.5637  H     1 <0>         0.0479
50   H22     -22.0159  -19.9463   28.8380  H     1 <0>         0.0479
51   H23     -21.1710  -18.5615   29.5672  H     1 <0>         0.0479
52   H24     -23.1393  -17.0016   28.5405  H     1 <0>         0.1479
53   H25     -33.5463   -9.9219   24.8210  H     1 <0>         0.1231
54   H26     -32.1667  -10.4174   24.0313  H     1 <0>         0.0000
@<TRIPOS>BOND
     1    1    2 ar
     2    1    5 ar
     3    2    7 ar
     4    3    4 ar
     5    3    5 ar
     6    4    6 1
     7    4    7 ar
     8    5   17 1
     9    6    8 2
    10    6   10 1
    11    7   21 1
    12    8   11 1
    13    8   21 1
    14    9   18 1
    15    9   24 1
    16    9   25 2
    17   10   18 1
    18   11   23 1
    19   12   13 1
    20   12   15 1
    21   13   17 1
    22   14   16 1
    23   14   17 1
    24   15   19 1
    25   16   19 1
    26   18   23 1
    27   19   22 1
    28   20   28 1
    29   22   28 1
    30   26   28 2
    31   27   28 2
    32    1   29 1
    33    2   30 1
    34    3   31 1
    35   10   32 1
    36   10   33 1
    37   11   34 1
    38   11   35 1
    39   12   36 1
    40   12   37 1
    41   13   38 1
    42   13   39 1
    43   14   40 1
    44   14   41 1
    45   15   42 1
    46   15   43 1
    47   16   44 1
    48   16   45 1
    49   17   46 1
    50   18   47 1
    51   19   48 1
    52   20   49 1
    53   20   50 1
    54   20   51 1
    55   22   52 1
    56   23   53 1
    57   23   54 1
@<TRIPOS>PROPERTY_DATA
  Total_Score	| 7.4565
  Crash		| -5.0717
  Polar		| 3.4373

@<TRIPOS>MOLECULE
ligand_uncharged49_002
   54    57     0     0     0
SMALL
USER_CHARGES

@<TRIPOS>ATOM
1    C1      -27.0696  -11.0397   28.1208  C.ar  1 <0>        -0.0563
2    C2      -27.7319   -9.8478   27.7538  C.ar  1 <0>        -0.0375
3    C3      -28.8909  -12.3740   27.1814  C.ar  1 <0>        -0.0489
4    C4      -29.5341  -11.1819   26.8195  C.ar  1 <0>         0.0035
5    C5      -27.6350  -12.3126   27.8316  C.ar  1 <0>        -0.0436
6    C6      -30.7502  -10.9477   26.2074  C.2   1 <0>        -0.0159
7    C7      -28.9674   -9.9389   27.1000  C.ar  1 <0>         0.0470
8    C8      -30.8690   -9.5594   26.1218  C.2   1 <0>         0.0343
9    C9      -34.3189  -11.9855   25.4725  C.2   1 <0>         0.3223
10   C10     -31.8275  -11.8899   25.8323  C.3   1 <0>         0.0005
11   C11     -32.0841   -8.9063   25.6050  C.3   1 <0>         0.0374
12   C12     -24.6910  -14.8981   27.6503  C.3   1 <0>        -0.0511
13   C13     -25.6373  -13.7171   27.3189  C.3   1 <0>        -0.0462
14   C14     -26.6888  -13.7225   29.7257  C.3   1 <0>        -0.0447
15   C15     -25.3411  -16.1718   28.2495  C.3   1 <0>        -0.0359
16   C16     -26.7599  -15.1892   30.2287  C.3   1 <0>        -0.0354
17   C17     -26.9230  -13.5782   28.1876  C.3   1 <0>        -0.0158
18   C18     -33.1909  -11.1483   25.9201  C.3   1 <0>         0.1101
19   C19     -25.5927  -16.1192   29.7873  C.3   1 <0>         0.0285
20   C20     -23.3353  -18.8444   29.6210  C.3   1 <0>         0.0705
21   N1      -29.8057   -8.9671   26.6981  N.2   1 <0>        -0.3567
22   N2      -25.8942  -17.4339   30.2568  N.pl3 1 <0>        -0.1917
23   N3      -33.0958   -9.8902   25.1270  N.4   1 <0>        -0.2984
24   O1      -35.3310  -12.2946   26.3160  O.co2 1 <0>        -0.4795
25   O2      -34.4385  -12.3392   24.1747  O.co2 1 <0>        -0.2492
26   O3      -25.4849  -19.9672   30.7237  O.2   1 <0>        -0.1585
27   O4      -24.2827  -18.3080   32.2172  O.2   1 <0>        -0.1585
28   S1      -24.7330  -18.5642   30.7174  S.o2  1 <0>         0.0268
29   H1      -26.1720  -10.9729   28.6038  H     1 <0>         0.0621
30   H2      -27.3186   -8.9370   27.9657  H     1 <0>         0.0638
31   H3      -29.3393  -13.2675   26.9620  H     1 <0>         0.0627
32   H4      -31.6433  -12.2448   24.8144  H     1 <0>         0.0334
33   H5      -31.8290  -12.7472   26.5083  H     1 <0>         0.0334
34   H6      -32.5152   -8.3034   26.4012  H     1 <0>         0.0488
35   H7      -31.8135   -8.2472   24.7798  H     1 <0>         0.0488
36   H8      -24.1800  -15.1771   26.7221  H     1 <0>         0.0266
37   H9      -23.9199  -14.5438   28.3361  H     1 <0>         0.0266
38   H10     -25.0450  -12.7987   27.3685  H     1 <0>         0.0271
39   H11     -25.9575  -13.8189   26.2784  H     1 <0>         0.0271
40   H12     -27.4658  -13.1705   30.2652  H     1 <0>         0.0272
41   H13     -25.7298  -13.2797   30.0053  H     1 <0>         0.0272
42   H14     -26.2618  -16.4109   27.7208  H     1 <0>         0.0281
43   H15     -24.6433  -16.9912   28.0463  H     1 <0>         0.0281
44   H16     -26.7817  -15.1676   31.3233  H     1 <0>         0.0281
45   H17     -27.7114  -15.6240   29.9075  H     1 <0>         0.0281
46   H18     -27.5690  -14.4102   27.8892  H     1 <0>         0.0349
47   H19     -33.3714  -10.8869   26.9658  H     1 <0>         0.0579
48   H20     -24.6879  -15.7651   30.2885  H     1 <0>         0.0477
49   H21     -22.6341  -19.5384   30.0919  H     1 <0>         0.0479
50   H22     -23.6994  -19.2799   28.6962  H     1 <0>         0.0479
51   H23     -22.8312  -17.9056   29.4132  H     1 <0>         0.0479
52   H24     -26.8253  -17.7064   30.2723  H     1 <0>         0.1479
53   H25     -34.0128   -9.4433   25.1015  H     1 <0>         0.1231
54   H26     -32.8415  -10.1497   24.1709  H     1 <0>         0.0000
@<TRIPOS>BOND
     1    1    2 ar
     2    1    5 ar
     3    2    7 ar
     4    3    4 ar
     5    3    5 ar
     6    4    6 1
     7    4    7 ar
     8    5   17 1
     9    6    8 2
    10    6   10 1
    11    7   21 1
    12    8   11 1
    13    8   21 1
    14    9   18 1
    15    9   24 1
    16    9   25 2
    17   10   18 1
    18   11   23 1
    19   12   13 1
    20   12   15 1
    21   13   17 1
    22   14   16 1
    23   14   17 1
    24   15   19 1
    25   16   19 1
    26   18   23 1
    27   19   22 1
    28   20   28 1
    29   22   28 1
    30   26   28 2
    31   27   28 2
    32    1   29 1
    33    2   30 1
    34    3   31 1
    35   10   32 1
    36   10   33 1
    37   11   34 1
    38   11   35 1
    39   12   36 1
    40   12   37 1
    41   13   38 1
    42   13   39 1
    43   14   40 1
    44   14   41 1
    45   15   42 1
    46   15   43 1
    47   16   44 1
    48   16   45 1
    49   17   46 1
    50   18   47 1
    51   19   48 1
    52   20   49 1
    53   20   50 1
    54   20   51 1
    55   22   52 1
    56   23   53 1
    57   23   54 1
@<TRIPOS>PROPERTY_DATA
  Total_Score	| 6.4032
  Crash		| -6.4122
  Polar		| 3.5361

@<TRIPOS>MOLECULE
ligand_uncharged55_000
   43    46     0     0     0
SMALL
USER_CHARGES

@<TRIPOS>ATOM
1    C1      -29.5666  -16.0968   26.5771  C.ar  1 <0>        -0.0566
2    C2      -30.5696  -15.8234   25.6229  C.ar  1 <0>        -0.0375
3    C3      -29.4894  -13.7356   27.2046  C.ar  1 <0>        -0.0491
4    C4      -30.4698  -13.4793   26.2360  C.ar  1 <0>         0.0035
5    C5      -28.9994  -15.0579   27.3589  C.ar  1 <0>        -0.0464
6    C6      -31.0928  -12.3368   25.8531  C.2   1 <0>        -0.0159
7    C7      -31.0039  -14.4958   25.4526  C.ar  1 <0>         0.0470
8    C8      -31.9372  -12.6928   24.8692  C.cat 1 <0>         0.0343
9    C9      -31.7198   -8.5979   25.9701  C.2   1 <0>         0.3223
10   C10     -30.8817  -10.9791   26.3296  C.3   1 <0>         0.0005
11   C11     -32.8437  -11.7518   24.2479  C.3   1 <0>         0.0374
12   C12     -25.9661  -14.1224   27.1947  C.3   1 <0>        -0.0263
13   C13     -25.9050  -14.5348   29.7139  C.3   1 <0>        -0.0263
14   C14     -24.8319  -13.0841   27.3975  C.3   1 <0>         0.0479
15   C15     -24.8115  -13.4385   29.7855  C.3   1 <0>         0.0479
16   C16     -32.0579  -10.0355   25.9156  C.3   1 <0>         0.1101
17   C17     -26.8213  -14.2694   28.4910  C.3   1 <0>        -0.0329
18   C18     -27.9423  -15.3527   28.3668  C.3   1 <0>        -0.0247
19   N1      -31.8829  -13.9676   24.6352  N.2   1 <0>        -0.3567
20   N2      -32.4922  -10.3388   24.5312  N.3   1 <0>        -0.2984
21   O1      -31.0743   -8.0712   27.0330  O.co2 1 <0>        -0.4795
22   O2      -32.3503   -7.7461   25.1317  O.co2 1 <0>        -0.2492
23   O3      -24.0451  -13.3929   28.5646  O.3   1 <0>        -0.3797
24   H1      -29.2694  -17.0668   26.7134  H     1 <0>         0.0621
25   H2      -30.9840  -16.5867   25.0828  H     1 <0>         0.0638
26   H3      -29.1397  -12.9617   27.7723  H     1 <0>         0.0627
27   H4      -30.7994  -10.9774   27.4218  H     1 <0>         0.0334
28   H5      -29.9356  -10.6116   25.9202  H     1 <0>         0.0334
29   H6      -32.7916  -11.8805   23.1679  H     1 <0>         0.0488
30   H7      -33.8635  -11.9572   24.5840  H     1 <0>         0.0488
31   H8      -26.5974  -13.7880   26.3683  H     1 <0>         0.0290
32   H9      -25.5233  -15.0837   26.9226  H     1 <0>         0.0290
33   H10     -25.4299  -15.5202   29.6411  H     1 <0>         0.0290
34   H11     -26.4997  -14.5045   30.6301  H     1 <0>         0.0290
35   H12     -24.1728  -13.0905   26.5263  H     1 <0>         0.0560
36   H13     -25.2538  -12.0758   27.4865  H     1 <0>         0.0560
37   H14     -25.2708  -12.4662   29.9755  H     1 <0>         0.0560
38   H15     -24.1427  -13.6597   30.6174  H     1 <0>         0.0560
39   H16     -32.9056  -10.2146   26.5886  H     1 <0>         0.0579
40   H17     -27.3018  -13.3053   28.6862  H     1 <0>         0.0305
41   H18     -28.4476  -15.4544   29.3285  H     1 <0>         0.0316
42   H19     -27.4668  -16.3152   28.1568  H     1 <0>         0.0316
43   H20     -31.7445  -10.0632   23.9024  H     1 <0>         0.1231
@<TRIPOS>BOND
     1    1    2 ar
     2    1    5 ar
     3    2    7 ar
     4    3    4 ar
     5    3    5 ar
     6    4    6 2
     7    4    7 ar
     8    5   18 1
     9    6    8 1
    10    6   10 1
    11    7   19 2
    12    8   11 1
    13    8   19 1
    14    9   16 1
    15    9   21 1
    16    9   22 2
    17   10   16 1
    18   11   20 1
    19   12   14 1
    20   12   17 1
    21   13   15 1
    22   13   17 1
    23   14   23 1
    24   15   23 1
    25   16   20 1
    26   17   18 1
    27    1   24 1
    28    2   25 1
    29    3   26 1
    30   10   27 1
    31   10   28 1
    32   11   29 1
    33   11   30 1
    34   12   31 1
    35   12   32 1
    36   13   33 1
    37   13   34 1
    38   14   35 1
    39   14   36 1
    40   15   37 1
    41   15   38 1
    42   16   39 1
    43   17   40 1
    44   18   41 1
    45   18   42 1
    46   20   43 1
@<TRIPOS>PROPERTY_DATA
  Total_Score	| 9.2673
  Crash		| -3.0788
  Polar		| 4.3488

@<TRIPOS>MOLECULE
ligand_uncharged55_001
   43    46     0     0     0
SMALL
USER_CHARGES

@<TRIPOS>ATOM
1    C1      -29.2511  -15.9502   27.4240  C.ar  1 <0>        -0.0566
2    C2      -30.1221  -15.8232   26.3251  C.ar  1 <0>        -0.0375
3    C3      -29.3458  -13.5396   27.8180  C.ar  1 <0>        -0.0491
4    C4      -30.2406  -13.4318   26.7418  C.ar  1 <0>         0.0035
5    C5      -28.8295  -14.8127   28.1649  C.ar  1 <0>        -0.0464
6    C6      -30.8977  -12.3846   26.1784  C.2   1 <0>        -0.0159
7    C7      -30.6011  -14.5473   25.9930  C.ar  1 <0>         0.0470
8    C8      -31.5855  -12.8895   25.1379  C.cat 1 <0>         0.0343
9    C9      -31.8481   -8.7214   25.9122  C.2   1 <0>         0.3223
10   C10     -30.8637  -10.9832   26.5477  C.3   1 <0>         0.0005
11   C11     -32.4914  -12.0952   24.3342  C.3   1 <0>         0.0374
12   C12     -25.9748  -13.4857   28.1662  C.3   1 <0>        -0.0263
13   C13     -25.9265  -16.0340   27.8998  C.3   1 <0>        -0.0263
14   C14     -24.5045  -13.4757   27.6697  C.3   1 <0>         0.0479
15   C15     -24.4630  -15.8861   27.4160  C.3   1 <0>         0.0479
16   C16     -32.0576  -10.1883   25.9249  C.3   1 <0>         0.1101
17   C17     -26.3417  -14.8546   28.8254  C.3   1 <0>        -0.0329
18   C18     -27.8396  -14.9432   29.2739  C.3   1 <0>        -0.0247
19   N1      -31.3985  -14.1651   25.0277  N.2   1 <0>        -0.3567
20   N2      -32.2814  -10.6395   24.5289  N.3   1 <0>        -0.2984
21   O1      -32.5916   -7.9339   25.1026  O.co2 1 <0>        -0.4795
22   O2      -31.0955   -8.1164   26.8556  O.co2 1 <0>        -0.2492
23   O3      -24.2378  -14.5982   26.8063  O.3   1 <0>        -0.3797
24   H1      -28.9030  -16.8781   27.6694  H     1 <0>         0.0621
25   H2      -30.3999  -16.6429   25.7792  H     1 <0>         0.0638
26   H3      -29.0555  -12.6997   28.3284  H     1 <0>         0.0627
27   H4      -30.9049  -10.8864   27.6360  H     1 <0>         0.0334
28   H5      -29.9104  -10.5645   26.2027  H     1 <0>         0.0334
29   H6      -32.3138  -12.3092   23.2796  H     1 <0>         0.0488
30   H7      -33.5238  -12.3537   24.5796  H     1 <0>         0.0488
31   H8      -26.1222  -12.6705   28.8840  H     1 <0>         0.0290
32   H9      -26.6185  -13.3024   27.3022  H     1 <0>         0.0290
33   H10     -26.5723  -16.0677   27.0207  H     1 <0>         0.0290
34   H11     -26.0404  -16.9747   28.4441  H     1 <0>         0.0290
35   H12     -24.3195  -12.5645   27.0968  H     1 <0>         0.0560
36   H13     -23.8229  -13.4806   28.5250  H     1 <0>         0.0560
37   H14     -23.7772  -16.0407   28.2502  H     1 <0>         0.0560
38   H15     -24.2564  -16.6503   26.6679  H     1 <0>         0.0560
39   H16     -32.9630  -10.4010   26.4995  H     1 <0>         0.0579
40   H17     -25.7413  -14.9445   29.7395  H     1 <0>         0.0305
41   H18     -28.0253  -14.1609   30.0120  H     1 <0>         0.0316
42   H19     -28.0064  -15.8926   29.7957  H     1 <0>         0.0316
43   H20     -31.4695  -10.3622   23.9796  H     1 <0>         0.1231
@<TRIPOS>BOND
     1    1    2 ar
     2    1    5 ar
     3    2    7 ar
     4    3    4 ar
     5    3    5 ar
     6    4    6 2
     7    4    7 ar
     8    5   18 1
     9    6    8 1
    10    6   10 1
    11    7   19 2
    12    8   11 1
    13    8   19 1
    14    9   16 1
    15    9   21 1
    16    9   22 2
    17   10   16 1
    18   11   20 1
    19   12   14 1
    20   12   17 1
    21   13   15 1
    22   13   17 1
    23   14   23 1
    24   15   23 1
    25   16   20 1
    26   17   18 1
    27    1   24 1
    28    2   25 1
    29    3   26 1
    30   10   27 1
    31   10   28 1
    32   11   29 1
    33   11   30 1
    34   12   31 1
    35   12   32 1
    36   13   33 1
    37   13   34 1
    38   14   35 1
    39   14   36 1
    40   15   37 1
    41   15   38 1
    42   16   39 1
    43   17   40 1
    44   18   41 1
    45   18   42 1
    46   20   43 1
@<TRIPOS>PROPERTY_DATA
  Total_Score	| 9.2503
  Crash		| -1.9703
  Polar		| 4.6370

@<TRIPOS>MOLECULE
ligand_uncharged55_002
   43    46     0     0     0
SMALL
USER_CHARGES

@<TRIPOS>ATOM
1    C1      -29.2574  -15.9108   27.3514  C.ar  1 <0>        -0.0566
2    C2      -30.1393  -15.7760   26.2579  C.ar  1 <0>        -0.0375
3    C3      -29.4149  -13.5174   27.8174  C.ar  1 <0>        -0.0491
4    C4      -30.3202  -13.3989   26.7470  C.ar  1 <0>         0.0035
5    C5      -28.8492  -14.7831   28.1134  C.ar  1 <0>        -0.0464
6    C6      -31.0053  -12.3520   26.2177  C.2   1 <0>        -0.0159
7    C7      -30.6599  -14.5048   25.9715  C.ar  1 <0>         0.0470
8    C8      -31.6771  -12.8478   25.1571  C.cat 1 <0>         0.0343
9    C9      -31.8156   -8.6609   25.8453  C.2   1 <0>         0.3223
10   C10     -30.9630  -10.9419   26.5870  C.3   1 <0>         0.0005
11   C11     -32.4984  -12.0284   24.2912  C.3   1 <0>         0.0374
12   C12     -26.0179  -13.5019   27.9057  C.3   1 <0>        -0.0263
13   C13     -25.9006  -16.0663   27.8467  C.3   1 <0>        -0.0263
14   C14     -24.5579  -13.4916   27.3891  C.3   1 <0>         0.0479
15   C15     -24.4592  -15.9122   27.3008  C.3   1 <0>         0.0479
16   C16     -32.0872  -10.1141   25.8816  C.3   1 <0>         0.1101
17   C17     -26.3327  -14.8211   28.6802  C.3   1 <0>        -0.0329
18   C18     -27.8144  -14.9039   29.1811  C.3   1 <0>        -0.0247
19   N1      -31.4665  -14.1169   25.0164  N.2   1 <0>        -0.3567
20   N2      -32.2493  -10.5782   24.4829  N.3   1 <0>        -0.2984
21   O1      -31.0599   -8.0692   26.7991  O.co2 1 <0>        -0.4795
22   O2      -32.5710   -7.8593   25.0596  O.co2 1 <0>        -0.2492
23   O3      -24.2765  -14.6650   26.5986  O.3   1 <0>        -0.3797
24   H1      -28.8918  -16.8402   27.5694  H     1 <0>         0.0621
25   H2      -30.3878  -16.5857   25.6842  H     1 <0>         0.0638
26   H3      -29.1489  -12.6852   28.3494  H     1 <0>         0.0627
27   H4      -31.0733  -10.8366   27.6700  H     1 <0>         0.0334
28   H5      -29.9766  -10.5604   26.3069  H     1 <0>         0.0334
29   H6      -32.2655  -12.2618   23.2516  H     1 <0>         0.0488
30   H7      -33.5500  -12.2536   24.4765  H     1 <0>         0.0488
31   H8      -26.1720  -12.6403   28.5632  H     1 <0>         0.0290
32   H9      -26.6834  -13.4030   27.0437  H     1 <0>         0.0290
33   H10     -26.5707  -16.2018   26.9960  H     1 <0>         0.0290
34   H11     -25.9516  -16.9620   28.4742  H     1 <0>         0.0290
35   H12     -24.4044  -12.6149   26.7559  H     1 <0>         0.0560
36   H13     -23.8623  -13.4235   28.2324  H     1 <0>         0.0560
37   H14     -23.7444  -15.9898   28.1241  H     1 <0>         0.0560
38   H15     -24.2499  -16.7228   26.5982  H     1 <0>         0.0560
39   H16     -33.0339  -10.2716   26.4067  H     1 <0>         0.0579
40   H17     -25.7041  -14.8134   29.5789  H     1 <0>         0.0305
41   H18     -27.9690  -14.1120   29.9205  H     1 <0>         0.0316
42   H19     -27.9672  -15.8457   29.7165  H     1 <0>         0.0316
43   H20     -31.3972  -10.3352   23.9804  H     1 <0>         0.1231
@<TRIPOS>BOND
     1    1    2 ar
     2    1    5 ar
     3    2    7 ar
     4    3    4 ar
     5    3    5 ar
     6    4    6 2
     7    4    7 ar
     8    5   18 1
     9    6    8 1
    10    6   10 1
    11    7   19 2
    12    8   11 1
    13    8   19 1
    14    9   16 1
    15    9   21 1
    16    9   22 2
    17   10   16 1
    18   11   20 1
    19   12   14 1
    20   12   17 1
    21   13   15 1
    22   13   17 1
    23   14   23 1
    24   15   23 1
    25   16   20 1
    26   17   18 1
    27    1   24 1
    28    2   25 1
    29    3   26 1
    30   10   27 1
    31   10   28 1
    32   11   29 1
    33   11   30 1
    34   12   31 1
    35   12   32 1
    36   13   33 1
    37   13   34 1
    38   14   35 1
    39   14   36 1
    40   15   37 1
    41   15   38 1
    42   16   39 1
    43   17   40 1
    44   18   41 1
    45   18   42 1
    46   20   43 1
@<TRIPOS>PROPERTY_DATA
  Total_Score	| 9.2453
  Crash		| -2.2935
  Polar		| 4.6125

